* NGSPICE file created from serv_exec_unit.ext - technology: scmos

* Black-box entry subcircuit for FILL abstract view
.subckt FILL vdd gnd
.ends

* Black-box entry subcircuit for AOI21X1 abstract view
.subckt AOI21X1 A B C Y vdd gnd
.ends

* Black-box entry subcircuit for DFFPOSX1 abstract view
.subckt DFFPOSX1 D CLK Q vdd gnd
.ends

* Black-box entry subcircuit for OAI21X1 abstract view
.subckt OAI21X1 A B C Y vdd gnd
.ends

* Black-box entry subcircuit for INVX1 abstract view
.subckt INVX1 A Y vdd gnd
.ends

* Black-box entry subcircuit for AND2X2 abstract view
.subckt AND2X2 A B Y vdd gnd
.ends

* Black-box entry subcircuit for NAND2X1 abstract view
.subckt NAND2X1 A B Y vdd gnd
.ends

* Black-box entry subcircuit for AOI22X1 abstract view
.subckt AOI22X1 A B C D Y vdd gnd
.ends

* Black-box entry subcircuit for BUFX2 abstract view
.subckt BUFX2 A Y vdd gnd
.ends

* Black-box entry subcircuit for CLKBUF1 abstract view
.subckt CLKBUF1 A Y vdd gnd
.ends

* Black-box entry subcircuit for NOR3X1 abstract view
.subckt NOR3X1 A B C Y vdd gnd
.ends

* Black-box entry subcircuit for NOR2X1 abstract view
.subckt NOR2X1 A B Y vdd gnd
.ends

* Black-box entry subcircuit for INVX2 abstract view
.subckt INVX2 A Y vdd gnd
.ends

* Black-box entry subcircuit for NAND3X1 abstract view
.subckt NAND3X1 A B C Y vdd gnd
.ends

* Black-box entry subcircuit for OAI22X1 abstract view
.subckt OAI22X1 A B C D Y vdd gnd
.ends

* Black-box entry subcircuit for OR2X2 abstract view
.subckt OR2X2 A B Y vdd gnd
.ends

* Black-box entry subcircuit for INVX8 abstract view
.subckt INVX8 A Y vdd gnd
.ends

.subckt serv_exec_unit gnd vdd clk rst_n cmd_valid cmd_ready cmd_op[3] cmd_op[2] cmd_op[1]
+ cmd_op[0] cmd_a cmd_b cmd_last rsp_valid rsp_ready rsp_result rsp_flags[5] rsp_flags[4]
+ rsp_flags[3] rsp_flags[2] rsp_flags[1] rsp_flags[0] rsp_last busy debug_state[2]
+ debug_state[1] debug_state[0]
XFILL_0__815_ vdd gnd FILL
X_1270_ _1270_/A _1270_/B _947_/C _1630_/D vdd gnd AOI21X1
XFILL_0__1475_ vdd gnd FILL
X_1606_ _1606_/D _767_/CLK _1606_/Q vdd gnd DFFPOSX1
X_1537_ _1537_/D _767_/CLK _1537_/Q vdd gnd DFFPOSX1
X_1399_ _1443_/A _1443_/B _1625_/Q _1401_/A vdd gnd OAI21X1
X_1468_ _1574_/Q _1469_/C vdd gnd INVX1
X_981_ _981_/A _981_/B _984_/C vdd gnd AND2X2
XFILL_0__1260_ vdd gnd FILL
XFILL_0__1191_ vdd gnd FILL
X_1322_ _977_/B _1332_/B _1327_/A vdd gnd NAND2X1
XFILL_1__993_ vdd gnd FILL
X_1253_ _1253_/A _1253_/B _904_/C _1255_/A vdd gnd OAI21X1
X_1184_ _1184_/A _885_/B _1185_/B vdd gnd NAND2X1
XFILL_0__1527_ vdd gnd FILL
XFILL_0__1458_ vdd gnd FILL
XFILL_0__1389_ vdd gnd FILL
X_895_ _895_/A _895_/B _955_/C _895_/Y vdd gnd AOI21X1
X_964_ _964_/A _964_/B _964_/C _964_/D _965_/B vdd gnd AOI22X1
XFILL_0__1312_ vdd gnd FILL
XFILL_0__1243_ vdd gnd FILL
XFILL_0__1174_ vdd gnd FILL
X_1305_ _1616_/Q _1345_/B _1466_/C _1306_/C vdd gnd OAI21X1
XFILL_1__976_ vdd gnd FILL
X_1236_ _1644_/Q _926_/B _1501_/C _1642_/Q _1237_/B vdd gnd AOI22X1
XFILL_1__1283_ vdd gnd FILL
XFILL_1__1352_ vdd gnd FILL
X_1098_ _1098_/A _1098_/B _963_/C _1100_/A vdd gnd OAI21X1
X_1167_ _1531_/C _1278_/B _1167_/C _1168_/B vdd gnd OAI21X1
XBUFX2_insert0 _896_/Y _963_/C vdd gnd BUFX2
XFILL_1_BUFX2_insert81 vdd gnd FILL
XFILL_1_BUFX2_insert70 vdd gnd FILL
XFILL_0__994_ vdd gnd FILL
XFILL_1__830_ vdd gnd FILL
X_947_ _947_/A _947_/B _947_/C _947_/Y vdd gnd AOI21X1
X_878_ _917_/A _990_/A _920_/B vdd gnd NAND2X1
X_1021_ _1506_/C _1508_/B _1021_/C _1023_/A vdd gnd AOI21X1
XFILL_0__1226_ vdd gnd FILL
XFILL_0__1157_ vdd gnd FILL
XFILL_0__1088_ vdd gnd FILL
X_1219_ _1650_/Q _926_/B _926_/C _1648_/Q _1220_/B vdd gnd AOI22X1
XFILL_1__1266_ vdd gnd FILL
XFILL_1__1197_ vdd gnd FILL
X_801_ _804_/Y _802_/Y _801_/Y vdd gnd NAND2X1
XFILL_0__977_ vdd gnd FILL
XFILL_0__1011_ vdd gnd FILL
X_1570_ _1570_/D _1637_/CLK _957_/A vdd gnd DFFPOSX1
XFILL_1__813_ vdd gnd FILL
XCLKBUF1_insert40 clk _1637_/CLK vdd gnd CLKBUF1
XFILL_1__1120_ vdd gnd FILL
X_1004_ _1004_/A _1004_/B _904_/C _1006_/A vdd gnd OAI21X1
XFILL_1__1051_ vdd gnd FILL
XFILL_0__1209_ vdd gnd FILL
XFILL_0__762_ vdd gnd FILL
XFILL_0__831_ vdd gnd FILL
XFILL_0__900_ vdd gnd FILL
XFILL_0__1491_ vdd gnd FILL
X_1622_ _1622_/D _1622_/CLK _1622_/Q vdd gnd DFFPOSX1
X_1553_ _1553_/D _1622_/CLK _968_/A vdd gnd DFFPOSX1
X_1484_ _1484_/A _1484_/B _955_/C _1542_/D vdd gnd AOI21X1
XFILL_1__1034_ vdd gnd FILL
XFILL_1__1103_ vdd gnd FILL
XFILL_0__814_ vdd gnd FILL
XFILL_0__1474_ vdd gnd FILL
X_1536_ _1536_/D _1637_/CLK _1536_/Q vdd gnd DFFPOSX1
X_1605_ _947_/Y _1639_/CLK _954_/A vdd gnd DFFPOSX1
X_1467_ _1467_/A _1467_/B _1467_/C _1590_/D vdd gnd AOI21X1
X_1398_ _1398_/A _1442_/B _1398_/C _1625_/D vdd gnd AOI21X1
XFILL_1__1017_ vdd gnd FILL
X_980_ _980_/A _980_/B _985_/A vdd gnd NAND2X1
XFILL_0__1190_ vdd gnd FILL
X_1321_ _1337_/A _1321_/B _1321_/C _1592_/D vdd gnd AOI21X1
X_1252_ _1296_/A _1499_/B _1252_/C _1253_/B vdd gnd NOR3X1
XFILL_0__1457_ vdd gnd FILL
X_1183_ _924_/A _924_/B _1184_/A vdd gnd NOR2X1
XFILL_0__1526_ vdd gnd FILL
XFILL_0__1388_ vdd gnd FILL
X_1519_ _1527_/D _1519_/B _1519_/C _1521_/A vdd gnd AOI21X1
XFILL_1__1497_ vdd gnd FILL
X_894_ _894_/A _894_/B _894_/C _905_/A _895_/A vdd gnd AOI22X1
X_963_ _963_/A _963_/B _963_/C _965_/A vdd gnd OAI21X1
XFILL_0__1311_ vdd gnd FILL
XFILL_0__1242_ vdd gnd FILL
XFILL_0__1173_ vdd gnd FILL
X_1304_ _1465_/B _857_/C _1537_/Q _1306_/A vdd gnd OAI21X1
XBUFX2_insert1 _896_/Y _1509_/C vdd gnd BUFX2
X_1235_ _925_/C _1235_/B _1237_/A vdd gnd NAND2X1
X_1166_ cmd_a _1524_/A _1278_/B vdd gnd NAND2X1
XFILL_1__1420_ vdd gnd FILL
XFILL_0__1509_ vdd gnd FILL
X_1097_ _1284_/A _962_/B _903_/C _1098_/B vdd gnd NOR3X1
XFILL_1_BUFX2_insert60 vdd gnd FILL
XFILL_1_BUFX2_insert71 vdd gnd FILL
XFILL_1_BUFX2_insert82 vdd gnd FILL
XFILL_0__993_ vdd gnd FILL
XFILL_1__760_ vdd gnd FILL
X_946_ _946_/A _946_/B _946_/C _954_/A _947_/B vdd gnd AOI22X1
X_1020_ _959_/B _990_/C _1508_/B vdd gnd NOR2X1
X_877_ _959_/B _990_/A vdd gnd INVX2
XFILL88950x3750 vdd gnd FILL
XFILL_0__1225_ vdd gnd FILL
XFILL_0__1156_ vdd gnd FILL
XFILL_0__1087_ vdd gnd FILL
XFILL_1__1403_ vdd gnd FILL
X_1149_ _1337_/A _1321_/B _1149_/C _1553_/D vdd gnd AOI21X1
X_1218_ _1218_/A _1218_/B _925_/C _1220_/A vdd gnd OAI21X1
XFILL_1__958_ vdd gnd FILL
XFILL89550x61350 vdd gnd FILL
XFILL_1__1334_ vdd gnd FILL
X_800_ _808_/Y _806_/Y _801_/Y _800_/Y vdd gnd NAND3X1
XFILL_0__976_ vdd gnd FILL
XFILL_0__1010_ vdd gnd FILL
X_929_ _957_/B _958_/A _929_/C _932_/A vdd gnd NAND3X1
X_1003_ _874_/A _962_/B _1252_/C _1004_/B vdd gnd NOR3X1
XCLKBUF1_insert41 clk _1654_/CLK vdd gnd CLKBUF1
XFILL_1__1050_ vdd gnd FILL
XFILL_0__1139_ vdd gnd FILL
XFILL_0__1208_ vdd gnd FILL
XFILL_1__1317_ vdd gnd FILL
XFILL_0__830_ vdd gnd FILL
XFILL_0__761_ vdd gnd FILL
XFILL_1__1248_ vdd gnd FILL
XFILL_0__1490_ vdd gnd FILL
X_1552_ _1552_/D _1651_/CLK _1552_/Q vdd gnd DFFPOSX1
X_1621_ _1621_/D _1637_/CLK _1621_/Q vdd gnd DFFPOSX1
XFILL_0__959_ vdd gnd FILL
X_1483_ _1558_/Q _954_/B _1533_/C _1542_/Q _1484_/B vdd gnd AOI22X1
XFILL_1__1033_ vdd gnd FILL
XFILL_1_BUFX2_insert1 vdd gnd FILL
XFILL_0__813_ vdd gnd FILL
XFILL_0__1473_ vdd gnd FILL
X_1604_ _1604_/D _767_/CLK _842_/A vdd gnd DFFPOSX1
X_1535_ _1535_/D _1654_/CLK _850_/A vdd gnd DFFPOSX1
X_1466_ _755_/A _1467_/B _1466_/C _1467_/C vdd gnd OAI21X1
X_1397_ _1625_/Q _1442_/B _1441_/C _1398_/C vdd gnd OAI21X1
X_1320_ _1466_/C _1320_/B _1321_/C vdd gnd NAND2X1
X_1182_ _1539_/Q _1182_/B _1185_/A vdd gnd NAND2X1
X_1251_ _1498_/A _916_/B _1251_/C _1253_/A vdd gnd AOI21X1
XFILL_1__991_ vdd gnd FILL
XFILL_0__1456_ vdd gnd FILL
XFILL_0__1525_ vdd gnd FILL
XFILL_0__1387_ vdd gnd FILL
X_1449_ _1452_/A _1452_/B _1635_/Q _1451_/A vdd gnd OAI21X1
X_1518_ _1598_/Q _1519_/C vdd gnd INVX1
X_893_ _908_/A _893_/B _908_/C _894_/C vdd gnd OAI21X1
X_962_ _962_/A _962_/B _962_/C _963_/B vdd gnd NOR3X1
XFILL_0__1310_ vdd gnd FILL
XFILL_0__1241_ vdd gnd FILL
XFILL_0__1172_ vdd gnd FILL
X_1303_ _980_/A _980_/B _1303_/C _1303_/Y vdd gnd NAND3X1
XFILL_1__974_ vdd gnd FILL
XFILL_1__1350_ vdd gnd FILL
XBUFX2_insert2 _896_/Y _1521_/C vdd gnd BUFX2
X_1234_ _1252_/C _1234_/B _1234_/C _1235_/B vdd gnd OAI21X1
X_1165_ _941_/B _1277_/B _1545_/Q _1167_/C vdd gnd OAI21X1
X_1096_ cmd_a _961_/B _961_/C _1284_/A vdd gnd NAND3X1
XFILL_0__1439_ vdd gnd FILL
XFILL_0__1508_ vdd gnd FILL
XFILL_1__1281_ vdd gnd FILL
XFILL_1_CLKBUF1_insert40 vdd gnd FILL
XFILL_0__992_ vdd gnd FILL
X_945_ _945_/A _945_/B _945_/C _947_/A vdd gnd OAI21X1
X_876_ _929_/C _939_/C _920_/A vdd gnd NAND2X1
XFILL_0__1224_ vdd gnd FILL
XFILL_0__1155_ vdd gnd FILL
XFILL_0__1086_ vdd gnd FILL
XFILL_1__957_ vdd gnd FILL
XFILL_1__1402_ vdd gnd FILL
XFILL_1__1333_ vdd gnd FILL
X_1148_ _968_/A _1466_/C _1149_/C vdd gnd NAND2X1
X_1217_ _1261_/A _924_/B _924_/C _1218_/B vdd gnd NOR3X1
X_1079_ _1541_/Q _936_/B _936_/C _1573_/Q _1080_/B vdd gnd AOI22X1
XFILL_1__888_ vdd gnd FILL
XFILL_1__1195_ vdd gnd FILL
XFILL_1__1264_ vdd gnd FILL
XFILL89250x7350 vdd gnd FILL
XFILL89550x3750 vdd gnd FILL
XFILL_0__975_ vdd gnd FILL
XFILL_1__811_ vdd gnd FILL
X_928_ _946_/A _931_/C vdd gnd INVX1
X_859_ _859_/A _859_/B _859_/C _859_/D _859_/Y vdd gnd OAI22X1
X_1002_ _1492_/A _960_/B _1002_/C _1004_/A vdd gnd AOI21X1
XCLKBUF1_insert42 clk _1648_/CLK vdd gnd CLKBUF1
XFILL_0__1207_ vdd gnd FILL
XFILL_0__1138_ vdd gnd FILL
XFILL_0__1069_ vdd gnd FILL
XFILL_1__1316_ vdd gnd FILL
XFILL_0__760_ vdd gnd FILL
XFILL_1__1178_ vdd gnd FILL
XFILL_1__1247_ vdd gnd FILL
XFILL_0__958_ vdd gnd FILL
X_1551_ _1551_/D _767_/CLK _845_/A vdd gnd DFFPOSX1
XFILL_0__889_ vdd gnd FILL
X_1482_ _1532_/C _1482_/B _1484_/A vdd gnd NAND2X1
X_1620_ _1620_/D _1622_/CLK _1620_/Q vdd gnd DFFPOSX1
XFILL_1__1101_ vdd gnd FILL
XFILL_1_BUFX2_insert2 vdd gnd FILL
XFILL_0__812_ vdd gnd FILL
XFILL_0__1472_ vdd gnd FILL
X_1465_ _1606_/Q _1465_/B _1465_/C _1465_/D _1467_/A vdd gnd AOI22X1
X_1603_ _955_/Y _1647_/CLK _964_/A vdd gnd DFFPOSX1
X_1534_ _1534_/A _1534_/B _1534_/C _1566_/D vdd gnd AOI21X1
X_1396_ _1443_/A _1443_/B _1629_/Q _1398_/A vdd gnd OAI21X1
XFILL_1__1015_ vdd gnd FILL
XFILL_1__990_ vdd gnd FILL
X_1181_ _1181_/A _1181_/B _955_/C _1541_/D vdd gnd AOI21X1
XFILL_0__1524_ vdd gnd FILL
X_1250_ _1636_/Q _1251_/C vdd gnd INVX1
XFILL_0__1455_ vdd gnd FILL
XFILL_0__1386_ vdd gnd FILL
X_1448_ _1448_/A _1451_/B _1448_/C _1635_/D vdd gnd AOI21X1
X_1517_ _1517_/A _1517_/B _947_/C _1639_/D vdd gnd AOI21X1
XFILL_1__1495_ vdd gnd FILL
X_1379_ _1379_/A _1379_/B _828_/B _1383_/B vdd gnd OAI21X1
XFILL89550x46950 vdd gnd FILL
X_961_ cmd_b _961_/B _961_/C _962_/A vdd gnd NAND3X1
X_892_ _892_/A _892_/B _893_/B vdd gnd NOR2X1
XFILL_0__1240_ vdd gnd FILL
XFILL_0__1171_ vdd gnd FILL
X_1302_ _1302_/A _1302_/B _965_/C _1618_/D vdd gnd AOI21X1
X_1233_ _1498_/B _950_/A _1642_/Q _1234_/C vdd gnd OAI21X1
XFILL_1__973_ vdd gnd FILL
X_1164_ _1164_/A _1164_/B _1528_/C _1547_/D vdd gnd AOI21X1
XFILL_0__1507_ vdd gnd FILL
XFILL_1__1280_ vdd gnd FILL
X_1095_ _960_/A _1498_/B _1095_/C _1098_/A vdd gnd AOI21X1
XBUFX2_insert3 _896_/Y _1532_/C vdd gnd BUFX2
XFILL_0__1438_ vdd gnd FILL
XFILL_0__1369_ vdd gnd FILL
XFILL_1_BUFX2_insert84 vdd gnd FILL
XFILL_1_BUFX2_insert62 vdd gnd FILL
XFILL_1_BUFX2_insert73 vdd gnd FILL
XFILL_1_BUFX2_insert51 vdd gnd FILL
XFILL_1_CLKBUF1_insert41 vdd gnd FILL
XFILL_1__1478_ vdd gnd FILL
XFILL_0__991_ vdd gnd FILL
X_944_ _944_/A _944_/B _944_/C _945_/B vdd gnd NOR3X1
X_875_ _973_/B _948_/C _891_/A _907_/A vdd gnd NAND3X1
XFILL_0__1223_ vdd gnd FILL
XFILL_0__1154_ vdd gnd FILL
XFILL_0__1085_ vdd gnd FILL
X_1216_ _973_/A _916_/B _1216_/C _1218_/A vdd gnd AOI21X1
XFILL_1__887_ vdd gnd FILL
X_1147_ _1319_/C _970_/B _985_/B _1321_/B vdd gnd OAI21X1
X_1078_ _1078_/A _1078_/B _945_/C _1080_/A vdd gnd OAI21X1
XFILL_1__1194_ vdd gnd FILL
XFILL_0__974_ vdd gnd FILL
X_858_ _858_/A _859_/B _858_/C _858_/Y vdd gnd OAI21X1
XFILL_1__810_ vdd gnd FILL
X_927_ _927_/A _927_/B _927_/C _927_/Y vdd gnd AOI21X1
X_789_ _790_/Y _805_/Y _789_/Y vdd gnd NAND2X1
X_1001_ _873_/C _959_/B _1492_/A vdd gnd AND2X2
XFILL90150x25350 vdd gnd FILL
XFILL_0__1206_ vdd gnd FILL
XCLKBUF1_insert43 clk _1650_/CLK vdd gnd CLKBUF1
XFILL_0__1137_ vdd gnd FILL
XFILL_0__1068_ vdd gnd FILL
XFILL_0__957_ vdd gnd FILL
X_1550_ _1550_/D _1648_/CLK _1550_/Q vdd gnd DFFPOSX1
X_1481_ _1531_/C _952_/B _1481_/C _1482_/B vdd gnd OAI21X1
XFILL_0__888_ vdd gnd FILL
XFILL_1__1100_ vdd gnd FILL
XFILL_1__1031_ vdd gnd FILL
XFILL_0__811_ vdd gnd FILL
XFILL_0__1471_ vdd gnd FILL
X_1602_ _1602_/D _1637_/CLK _1602_/Q vdd gnd DFFPOSX1
X_1464_ _848_/B _1464_/B _1465_/B _1465_/C vdd gnd AOI21X1
X_1395_ _1395_/A _1439_/B _1395_/C _1629_/D vdd gnd AOI21X1
X_1533_ _1655_/Q _954_/B _1533_/C _894_/A _1534_/B vdd gnd AOI22X1
XFILL_1__1014_ vdd gnd FILL
XFILL_0__1523_ vdd gnd FILL
X_1180_ _1180_/A _885_/B _1181_/B vdd gnd NAND2X1
XFILL_0__1454_ vdd gnd FILL
XFILL_0__1385_ vdd gnd FILL
X_1516_ _1550_/Q _936_/B _936_/C _1639_/Q _1517_/B vdd gnd AOI22X1
X_1447_ _1635_/Q _1451_/B _1453_/C _1448_/C vdd gnd OAI21X1
X_1378_ _1378_/A _1378_/B _1534_/C _1649_/D vdd gnd AOI21X1
XFILL_1__1494_ vdd gnd FILL
X_891_ _891_/A _891_/B _892_/B vdd gnd NAND2X1
X_960_ _960_/A _960_/B _960_/C _963_/A vdd gnd AOI21X1
XFILL_0__1170_ vdd gnd FILL
X_1301_ _1620_/Q _985_/B _1301_/C _808_/B _1302_/A vdd gnd AOI22X1
X_1232_ _1232_/A _1232_/B _1511_/C _1644_/D vdd gnd AOI21X1
XFILL_0__1437_ vdd gnd FILL
X_1163_ _1549_/Q _946_/B _946_/C _1547_/Q _1164_/B vdd gnd AOI22X1
XFILL_0__1506_ vdd gnd FILL
XBUFX2_insert4 _896_/Y _925_/C vdd gnd BUFX2
X_1094_ _1567_/Q _1095_/C vdd gnd INVX1
XFILL_0__1299_ vdd gnd FILL
XFILL_0__1368_ vdd gnd FILL
XFILL_1_BUFX2_insert85 vdd gnd FILL
XFILL_1_BUFX2_insert74 vdd gnd FILL
XFILL_1_BUFX2_insert63 vdd gnd FILL
XFILL_1_BUFX2_insert52 vdd gnd FILL
XFILL_1__1477_ vdd gnd FILL
XFILL_0__990_ vdd gnd FILL
X_943_ cmd_b _961_/C _943_/C _944_/A vdd gnd NAND3X1
X_874_ _874_/A _903_/B _885_/A vdd gnd NOR2X1
XFILL_0__1084_ vdd gnd FILL
XFILL_0__1222_ vdd gnd FILL
XFILL_0__1153_ vdd gnd FILL
XFILL_1__1400_ vdd gnd FILL
X_1146_ _969_/A _1319_/C vdd gnd INVX1
X_1215_ _1648_/Q _1216_/C vdd gnd INVX1
XFILL_1__955_ vdd gnd FILL
XFILL_1__1331_ vdd gnd FILL
X_1077_ _1267_/A _944_/B _1514_/C _1078_/B vdd gnd NOR3X1
XFILL_1__1262_ vdd gnd FILL
XFILL_0__973_ vdd gnd FILL
X_857_ _857_/A _857_/B _857_/C _857_/Y vdd gnd OAI21X1
X_788_ _791_/Y _789_/Y _788_/Y vdd gnd NAND2X1
X_926_ _926_/A _926_/B _926_/C _936_/A _927_/B vdd gnd AOI22X1
X_1000_ _1595_/Q _1002_/C vdd gnd INVX1
XCLKBUF1_insert44 clk _1643_/CLK vdd gnd CLKBUF1
XFILL_0__1136_ vdd gnd FILL
XFILL_0__1205_ vdd gnd FILL
XFILL_0__1067_ vdd gnd FILL
XFILL_1__938_ vdd gnd FILL
XFILL_1__869_ vdd gnd FILL
X_1129_ _887_/A _986_/A _1416_/C _1427_/A vdd gnd OAI21X1
XFILL_1__1314_ vdd gnd FILL
XFILL_1__1176_ vdd gnd FILL
XFILL_1__1245_ vdd gnd FILL
XFILL_0__956_ vdd gnd FILL
XFILL_0__887_ vdd gnd FILL
X_1480_ _892_/A _950_/A _1542_/Q _1481_/C vdd gnd OAI21X1
X_909_ _926_/A _909_/B _912_/B vdd gnd NAND2X1
XFILL_0__1119_ vdd gnd FILL
XFILL_1_BUFX2_insert4 vdd gnd FILL
XFILL_0__810_ vdd gnd FILL
XFILL_1__1159_ vdd gnd FILL
XFILL_1__1228_ vdd gnd FILL
XFILL_0__1470_ vdd gnd FILL
XFILL_0__939_ vdd gnd FILL
X_1532_ _1532_/A _1532_/B _1532_/C _1534_/A vdd gnd OAI21X1
X_1601_ _965_/Y _1622_/CLK _964_/D vdd gnd DFFPOSX1
X_1463_ _1463_/A _1463_/B _1463_/C _1465_/D vdd gnd NAND3X1
X_1394_ _1629_/Q _1439_/B _1441_/C _1395_/C vdd gnd OAI21X1
XFILL89850x7350 vdd gnd FILL
XFILL_0__1453_ vdd gnd FILL
XFILL_0__1522_ vdd gnd FILL
XFILL_0__1384_ vdd gnd FILL
X_1515_ _1515_/A _1515_/B _945_/C _1517_/A vdd gnd OAI21X1
X_1446_ _1452_/A _1452_/B _1643_/Q _1448_/A vdd gnd OAI21X1
X_1377_ _997_/C _1377_/B _1386_/A _1378_/A vdd gnd NAND3X1
X_890_ _957_/A _939_/C _891_/B vdd gnd NOR2X1
XFILL_1__971_ vdd gnd FILL
X_1162_ _1162_/A _1162_/B _1521_/C _1164_/A vdd gnd OAI21X1
X_1231_ _1646_/Q _926_/B _1501_/C _1644_/Q _1232_/B vdd gnd AOI22X1
X_1300_ cmd_a _1319_/B _1300_/C _1302_/B vdd gnd NAND3X1
XFILL_0__1436_ vdd gnd FILL
XFILL_0__1505_ vdd gnd FILL
XBUFX2_insert5 _896_/Y _945_/C vdd gnd BUFX2
X_1093_ _1093_/A _1093_/B _955_/C _1569_/D vdd gnd AOI21X1
XFILL_0__1298_ vdd gnd FILL
XFILL_0__1367_ vdd gnd FILL
X_1429_ _1562_/Q _1436_/B _1441_/C _1430_/C vdd gnd OAI21X1
XFILL_1_BUFX2_insert31 vdd gnd FILL
XFILL_1_BUFX2_insert20 vdd gnd FILL
XFILL89850x75750 vdd gnd FILL
XFILL_1_CLKBUF1_insert43 vdd gnd FILL
X_942_ _942_/A _943_/C vdd gnd INVX1
X_873_ cmd_b _961_/C _873_/C _874_/A vdd gnd NAND3X1
XFILL_0__1221_ vdd gnd FILL
XFILL_0__1152_ vdd gnd FILL
XFILL_0__1083_ vdd gnd FILL
XFILL_1__954_ vdd gnd FILL
XFILL_1__1330_ vdd gnd FILL
X_1145_ _1332_/B _1337_/A vdd gnd INVX1
X_1214_ _1214_/A _1214_/B _927_/C _1650_/D vdd gnd AOI21X1
XFILL_1__885_ vdd gnd FILL
XFILL_1__1192_ vdd gnd FILL
XFILL_1__1261_ vdd gnd FILL
X_1076_ cmd_a _961_/C _933_/C _1267_/A vdd gnd NAND3X1
XFILL_0__1419_ vdd gnd FILL
XFILL_1__1528_ vdd gnd FILL
XFILL_0__972_ vdd gnd FILL
X_925_ _925_/A _925_/B _925_/C _927_/A vdd gnd OAI21X1
X_856_ _856_/A _857_/B _856_/Y vdd gnd NOR2X1
X_787_ _792_/Y _791_/Y _825_/Y _788_/Y _787_/Y vdd gnd OAI22X1
XCLKBUF1_insert34 clk _767_/CLK vdd gnd CLKBUF1
XFILL_0__1204_ vdd gnd FILL
XFILL_0__1135_ vdd gnd FILL
XFILL_0__1066_ vdd gnd FILL
XFILL_1__937_ vdd gnd FILL
XFILL_1__1313_ vdd gnd FILL
XFILL_1__799_ vdd gnd FILL
XFILL_1__868_ vdd gnd FILL
X_1059_ _1059_/A _1059_/B _1532_/C _1061_/A vdd gnd OAI21X1
X_1128_ _888_/B _974_/B _1416_/C vdd gnd NAND2X1
XFILL_1__1175_ vdd gnd FILL
XFILL_1__1244_ vdd gnd FILL
XFILL_0__886_ vdd gnd FILL
XFILL_0__955_ vdd gnd FILL
X_908_ _908_/A _911_/D _908_/C _909_/B vdd gnd OAI21X1
X_839_ _858_/A _854_/B _859_/A vdd gnd NAND2X1
XFILL_0__1118_ vdd gnd FILL
XFILL_0__1049_ vdd gnd FILL
XFILL_1_BUFX2_insert5 vdd gnd FILL
XFILL89550x72150 vdd gnd FILL
XFILL_1__1158_ vdd gnd FILL
XFILL_1__1227_ vdd gnd FILL
XFILL_1__1089_ vdd gnd FILL
XFILL_0__938_ vdd gnd FILL
X_1600_ _1600_/D _767_/CLK _856_/A vdd gnd DFFPOSX1
X_1462_ _1606_/Q _844_/C _1462_/C _1463_/C vdd gnd NAND3X1
XFILL_0__869_ vdd gnd FILL
X_1531_ _962_/A _1531_/B _1531_/C _1532_/B vdd gnd NOR3X1
X_1393_ _1443_/A _1443_/B _1633_/Q _1395_/A vdd gnd OAI21X1
XFILL_1__1012_ vdd gnd FILL
XFILL_0__1452_ vdd gnd FILL
XFILL_0__1521_ vdd gnd FILL
XFILL_0__1383_ vdd gnd FILL
X_1445_ _1445_/A _1454_/B _1445_/C _1643_/D vdd gnd AOI21X1
X_1514_ _934_/A _1520_/B _1514_/C _1515_/B vdd gnd NOR3X1
X_1376_ _1376_/A _1376_/B _1377_/B vdd gnd NOR2X1
XFILL_1__1492_ vdd gnd FILL
X_1230_ _1230_/A _1230_/B _1509_/C _1232_/A vdd gnd OAI21X1
X_1161_ _1273_/A _1520_/B _1520_/C _1162_/B vdd gnd NOR3X1
X_1092_ _1571_/Q _954_/B _954_/C _1569_/Q _1093_/B vdd gnd AOI22X1
XBUFX2_insert6 _896_/Y _904_/C vdd gnd BUFX2
XFILL_0__1435_ vdd gnd FILL
XFILL_0__1366_ vdd gnd FILL
XFILL_0__1504_ vdd gnd FILL
XFILL_0__1297_ vdd gnd FILL
XFILL_1_BUFX2_insert10 vdd gnd FILL
X_1428_ _1431_/A _1434_/B _1602_/Q _1430_/A vdd gnd OAI21X1
XFILL_1_BUFX2_insert65 vdd gnd FILL
XFILL_1_BUFX2_insert54 vdd gnd FILL
XFILL_1_BUFX2_insert32 vdd gnd FILL
XFILL_1_BUFX2_insert76 vdd gnd FILL
XFILL_1_BUFX2_insert21 vdd gnd FILL
X_1359_ _1544_/Q _1451_/B _1453_/C _1360_/C vdd gnd OAI21X1
XFILL_1_BUFX2_insert87 vdd gnd FILL
XFILL_1__1475_ vdd gnd FILL
X_941_ _941_/A _941_/B _941_/C _945_/A vdd gnd AOI21X1
X_872_ _990_/B _948_/C _891_/A _961_/C vdd gnd NAND3X1
XFILL_0__1220_ vdd gnd FILL
XFILL_0__1151_ vdd gnd FILL
XBUFX2_insert90 _1186_/Y _1454_/B vdd gnd BUFX2
XFILL_0__1082_ vdd gnd FILL
X_1213_ _1652_/Q _911_/B _1257_/C _911_/D _1214_/A vdd gnd AOI22X1
X_1144_ _1303_/C _1342_/B _986_/B _1332_/B vdd gnd NAND3X1
X_1075_ _931_/A _1498_/B _1075_/C _1078_/A vdd gnd AOI21X1
XFILL_0__1349_ vdd gnd FILL
XFILL_1__1191_ vdd gnd FILL
XFILL_0__1418_ vdd gnd FILL
XFILL_1__1458_ vdd gnd FILL
XFILL_0__971_ vdd gnd FILL
XFILL_1__1389_ vdd gnd FILL
XFILL_1__1527_ vdd gnd FILL
X_924_ _924_/A _924_/B _924_/C _925_/B vdd gnd NOR3X1
X_855_ _857_/A _857_/B _855_/Y vdd gnd NOR2X1
X_786_ _787_/Y _853_/Y gnd _786_/Y vdd gnd AOI21X1
XFILL_0__1134_ vdd gnd FILL
XCLKBUF1_insert35 clk _1639_/CLK vdd gnd CLKBUF1
XFILL_0__1203_ vdd gnd FILL
XFILL_0__1065_ vdd gnd FILL
X_1127_ _1127_/A _1127_/B _947_/C _1559_/D vdd gnd AOI21X1
X_1058_ _874_/A _903_/B _962_/C _1059_/B vdd gnd NOR3X1
XFILL_0__954_ vdd gnd FILL
XFILL_0__885_ vdd gnd FILL
X_838_ _856_/A _854_/B vdd gnd INVX1
X_907_ _907_/A _911_/D vdd gnd INVX1
X_769_ _793_/B _772_/Y _769_/Y vdd gnd NAND2X1
XFILL_0__1117_ vdd gnd FILL
XFILL_0__1048_ vdd gnd FILL
XFILL_1__919_ vdd gnd FILL
XFILL_0__937_ vdd gnd FILL
X_1461_ _859_/A _844_/B _1462_/C vdd gnd OR2X2
XFILL_0__799_ vdd gnd FILL
X_1392_ _1392_/A _1410_/B _1392_/C _1633_/D vdd gnd AOI21X1
XFILL_0__868_ vdd gnd FILL
X_1530_ _1530_/A _949_/A _1530_/C _1532_/A vdd gnd AOI21X1
XFILL_1__1011_ vdd gnd FILL
XFILL_1__1209_ vdd gnd FILL
XFILL_0__1520_ vdd gnd FILL
XFILL_0__1451_ vdd gnd FILL
XFILL_0__1382_ vdd gnd FILL
X_1444_ _1643_/Q _1451_/B _1453_/C _1445_/C vdd gnd OAI21X1
X_1375_ _829_/A _981_/A _1376_/A vdd gnd NOR2X1
X_1513_ _944_/C _1513_/B _1513_/C _1515_/A vdd gnd AOI21X1
XFILL_1__1491_ vdd gnd FILL
XBUFX2_insert7 _848_/Y _1434_/B vdd gnd BUFX2
X_1160_ _1527_/D _1519_/B _1160_/C _1162_/A vdd gnd AOI21X1
XFILL_0__1503_ vdd gnd FILL
X_1091_ _963_/C _1091_/B _1093_/A vdd gnd NAND2X1
XFILL_0__1434_ vdd gnd FILL
XFILL_0__1365_ vdd gnd FILL
XFILL_0__1296_ vdd gnd FILL
XFILL_1_BUFX2_insert88 vdd gnd FILL
X_1358_ _1452_/A _1452_/B _1548_/Q _1360_/A vdd gnd OAI21X1
X_1427_ _1427_/A _1427_/B _1427_/C _1570_/D vdd gnd AOI21X1
XFILL_1_BUFX2_insert66 vdd gnd FILL
XFILL_1_BUFX2_insert77 vdd gnd FILL
XFILL_1_CLKBUF1_insert34 vdd gnd FILL
XFILL_1__1474_ vdd gnd FILL
X_1289_ _1289_/A _892_/A _1289_/C _1291_/A vdd gnd AOI21X1
X_940_ _990_/A _942_/A _941_/A vdd gnd NOR2X1
X_871_ _973_/B _871_/Y vdd gnd INVX8
XFILL_0__1150_ vdd gnd FILL
XBUFX2_insert91 _1186_/Y _1439_/B vdd gnd BUFX2
XBUFX2_insert80 _880_/Y _1514_/C vdd gnd BUFX2
XFILL_0__1081_ vdd gnd FILL
X_1212_ _1650_/Q _909_/B _1214_/B vdd gnd NAND2X1
XFILL_1__952_ vdd gnd FILL
XFILL_1__883_ vdd gnd FILL
X_1143_ _985_/B _1195_/C _1342_/B vdd gnd NAND2X1
X_1074_ _1573_/Q _1075_/C vdd gnd INVX1
XFILL_0__1417_ vdd gnd FILL
XFILL_0__1348_ vdd gnd FILL
XFILL_0__1279_ vdd gnd FILL
XFILL89550x57750 vdd gnd FILL
XFILL_0__970_ vdd gnd FILL
XFILL_1__1388_ vdd gnd FILL
X_854_ _854_/A _854_/B _857_/A vdd gnd NAND2X1
X_923_ cmd_b _923_/B _961_/C _924_/A vdd gnd NAND3X1
X_785_ _794_/Y _793_/Y _786_/Y _785_/Y vdd gnd NAND3X1
XFILL_0__1133_ vdd gnd FILL
XCLKBUF1_insert36 clk _1651_/CLK vdd gnd CLKBUF1
XFILL_0__1202_ vdd gnd FILL
XFILL_0__1064_ vdd gnd FILL
XFILL_1__797_ vdd gnd FILL
XFILL_1__935_ vdd gnd FILL
X_1126_ _1561_/Q _936_/B _1501_/C _1559_/Q _1127_/B vdd gnd AOI22X1
XFILL_1__866_ vdd gnd FILL
XFILL_1__1311_ vdd gnd FILL
XFILL_1__1242_ vdd gnd FILL
XFILL_1__1173_ vdd gnd FILL
X_1057_ _1289_/A _892_/A _1057_/C _1059_/A vdd gnd AOI21X1
XFILL_0__884_ vdd gnd FILL
XFILL_0__953_ vdd gnd FILL
X_768_ _772_/Y _774_/Y _769_/Y _768_/Y vdd gnd OAI21X1
X_837_ _850_/A _849_/A vdd gnd INVX1
X_906_ _906_/A _906_/B _999_/C _906_/Y vdd gnd AOI21X1
XFILL_0__1047_ vdd gnd FILL
XFILL_0__1116_ vdd gnd FILL
XFILL_1_BUFX2_insert7 vdd gnd FILL
XFILL_1__849_ vdd gnd FILL
X_1109_ _1498_/A _973_/B _1109_/C _1112_/A vdd gnd AOI21X1
XFILL_1__918_ vdd gnd FILL
XFILL_1__1225_ vdd gnd FILL
XFILL_1__1156_ vdd gnd FILL
XFILL_1__1087_ vdd gnd FILL
XFILL_0_BUFX2_insert90 vdd gnd FILL
XFILL_0__936_ vdd gnd FILL
XFILL_0__867_ vdd gnd FILL
X_1460_ _1460_/A _1460_/B _1464_/B _1463_/B vdd gnd OAI21X1
XFILL_0__798_ vdd gnd FILL
X_1391_ _1633_/Q _1410_/B _860_/A _1392_/C vdd gnd OAI21X1
XFILL90150x36150 vdd gnd FILL
X_1589_ _1589_/D _1648_/CLK _1589_/Q vdd gnd DFFPOSX1
XFILL_1__1139_ vdd gnd FILL
XFILL_1__1208_ vdd gnd FILL
XFILL_0__1450_ vdd gnd FILL
XFILL_0__1381_ vdd gnd FILL
X_1512_ _1639_/Q _1513_/C vdd gnd INVX1
XFILL_0__919_ vdd gnd FILL
X_1443_ _1443_/A _1443_/B _1651_/Q _1445_/A vdd gnd OAI21X1
X_1374_ _1379_/A _1379_/B _829_/A _1378_/B vdd gnd OAI21X1
XBUFX2_insert8 _848_/Y _1455_/B vdd gnd BUFX2
XFILL_0__1433_ vdd gnd FILL
XFILL_0__1502_ vdd gnd FILL
X_1090_ _1531_/C _1234_/B _1090_/C _1091_/B vdd gnd OAI21X1
XFILL_0__1364_ vdd gnd FILL
XFILL_0__1295_ vdd gnd FILL
X_1357_ _1357_/A _1454_/B _1357_/C _1548_/D vdd gnd AOI21X1
XFILL_1_BUFX2_insert45 vdd gnd FILL
X_1426_ _957_/A _1427_/A _860_/A _1427_/C vdd gnd OAI21X1
XFILL_1_BUFX2_insert12 vdd gnd FILL
XFILL_1_BUFX2_insert23 vdd gnd FILL
XFILL_1_BUFX2_insert56 vdd gnd FILL
X_1288_ _1622_/Q _1289_/C vdd gnd INVX1
XFILL_1_CLKBUF1_insert35 vdd gnd FILL
X_870_ _957_/A _958_/A _939_/C _873_/C vdd gnd NOR3X1
XFILL_0__1080_ vdd gnd FILL
XBUFX2_insert81 _880_/Y _1520_/C vdd gnd BUFX2
XBUFX2_insert70 _921_/Y _962_/C vdd gnd BUFX2
X_1142_ _1142_/A _1142_/B _1142_/C _1555_/D vdd gnd AOI21X1
X_999_ _999_/A _999_/B _999_/C _999_/Y vdd gnd AOI21X1
XFILL_1__951_ vdd gnd FILL
X_1211_ _1211_/A _1211_/B _1534_/C _1652_/D vdd gnd AOI21X1
XFILL_1__882_ vdd gnd FILL
XFILL_0__1416_ vdd gnd FILL
X_1073_ _1073_/A _1073_/B _965_/C _1575_/D vdd gnd AOI21X1
XFILL_0__1347_ vdd gnd FILL
XFILL_0__1278_ vdd gnd FILL
X_1409_ _1602_/Q _1410_/B _860_/A _1410_/C vdd gnd OAI21X1
XFILL_1__1525_ vdd gnd FILL
XFILL_1__1456_ vdd gnd FILL
X_853_ _854_/B _857_/B _859_/A _859_/D _853_/Y vdd gnd OAI22X1
X_784_ _795_/Y _800_/Y _784_/Y vdd gnd NAND2X1
X_922_ _990_/C _923_/B vdd gnd INVX1
XCLKBUF1_insert37 clk _1622_/CLK vdd gnd CLKBUF1
XFILL_0__1201_ vdd gnd FILL
XFILL_0__1063_ vdd gnd FILL
XFILL_0__1132_ vdd gnd FILL
XFILL_1__796_ vdd gnd FILL
X_1125_ _1125_/A _1125_/B _1509_/C _1127_/A vdd gnd OAI21X1
XFILL_1__865_ vdd gnd FILL
XFILL_1__1241_ vdd gnd FILL
XFILL_1__1172_ vdd gnd FILL
X_1056_ _892_/B _1289_/A vdd gnd INVX1
XFILL_1__1439_ vdd gnd FILL
XFILL_1__1508_ vdd gnd FILL
XFILL_0__952_ vdd gnd FILL
XFILL_0__883_ vdd gnd FILL
X_905_ _905_/A _964_/B _964_/C _911_/A _906_/B vdd gnd AOI22X1
X_767_ _768_/Y _767_/CLK _793_/B vdd gnd DFFPOSX1
X_836_ _836_/A _836_/Y vdd gnd INVX1
XFILL_0__1046_ vdd gnd FILL
XFILL_0__1115_ vdd gnd FILL
XFILL_1__779_ vdd gnd FILL
X_1039_ _1039_/A _1039_/B _1528_/C _1585_/D vdd gnd AOI21X1
X_1108_ _1563_/Q _1109_/C vdd gnd INVX1
XFILL_1__1155_ vdd gnd FILL
XFILL_1__1086_ vdd gnd FILL
XFILL_0_BUFX2_insert91 vdd gnd FILL
XFILL_0_BUFX2_insert80 vdd gnd FILL
XFILL_0__797_ vdd gnd FILL
XFILL_0__935_ vdd gnd FILL
XFILL_0__866_ vdd gnd FILL
X_1390_ _1431_/A _1434_/B _1637_/Q _1392_/A vdd gnd OAI21X1
X_819_ _846_/A _846_/C _858_/C vdd gnd NAND2X1
X_1588_ _1588_/D _1622_/CLK _977_/B vdd gnd DFFPOSX1
XFILL_0__1029_ vdd gnd FILL
XFILL_1__1069_ vdd gnd FILL
XFILL_0__1380_ vdd gnd FILL
X_1442_ _1442_/A _1442_/B _1442_/C _1651_/D vdd gnd AOI21X1
XFILL_0__849_ vdd gnd FILL
X_1511_ _1511_/A _1511_/B _1511_/C _1550_/D vdd gnd AOI21X1
XFILL_0__918_ vdd gnd FILL
X_1373_ _1373_/A _1373_/B _1534_/C _1653_/D vdd gnd AOI21X1
XBUFX2_insert9 _848_/Y _1452_/B vdd gnd BUFX2
XFILL_0__1432_ vdd gnd FILL
XFILL_0__1363_ vdd gnd FILL
XFILL_0__1501_ vdd gnd FILL
XFILL_0__1294_ vdd gnd FILL
XFILL_1_BUFX2_insert24 vdd gnd FILL
X_1425_ _929_/C _995_/A _1425_/C _997_/A _1427_/B vdd gnd AOI22X1
XFILL_1_BUFX2_insert13 vdd gnd FILL
X_1356_ _1548_/Q _1454_/B _1356_/C _1357_/C vdd gnd OAI21X1
XFILL_1_BUFX2_insert57 vdd gnd FILL
X_1287_ _1287_/A _1287_/B _1534_/C _1624_/D vdd gnd AOI21X1
XFILL_1_BUFX2_insert46 vdd gnd FILL
XFILL_1_BUFX2_insert68 vdd gnd FILL
XFILL_1__1472_ vdd gnd FILL
XFILL_1_BUFX2_insert79 vdd gnd FILL
XBUFX2_insert60 _1303_/Y _1431_/A vdd gnd BUFX2
XBUFX2_insert71 _921_/Y _924_/C vdd gnd BUFX2
XBUFX2_insert82 _880_/Y _903_/C vdd gnd BUFX2
X_1141_ _1385_/C _1141_/B _1142_/C vdd gnd NAND2X1
X_998_ _998_/A _998_/B _998_/C _999_/A vdd gnd NAND3X1
X_1210_ _1654_/Q _894_/B _1533_/C _1652_/Q _1211_/B vdd gnd AOI22X1
X_1072_ _1577_/Q _894_/B _1301_/C _805_/A _1073_/A vdd gnd AOI22X1
XFILL_0__1346_ vdd gnd FILL
XFILL_0__1415_ vdd gnd FILL
XFILL_0__1277_ vdd gnd FILL
X_1408_ _1431_/A _1434_/B _1611_/Q _1410_/A vdd gnd OAI21X1
X_1339_ _1572_/Q _1345_/B _1356_/C _1340_/C vdd gnd OAI21X1
XFILL_1__1455_ vdd gnd FILL
XFILL_1__1524_ vdd gnd FILL
XFILL_1__1386_ vdd gnd FILL
X_921_ _961_/C _921_/B _921_/Y vdd gnd NAND2X1
X_852_ _854_/B _857_/B _852_/Y vdd gnd NOR2X1
X_783_ _801_/Y _806_/Y _799_/Y _783_/Y vdd gnd AOI21X1
XFILL_0__1200_ vdd gnd FILL
XCLKBUF1_insert38 clk _1655_/CLK vdd gnd CLKBUF1
XFILL_0__1131_ vdd gnd FILL
XFILL_0__1062_ vdd gnd FILL
XFILL_1__933_ vdd gnd FILL
XFILL90150x64950 vdd gnd FILL
X_1124_ _1261_/A _1506_/B _1506_/C _1125_/B vdd gnd NOR3X1
X_1055_ _1579_/Q _1057_/C vdd gnd INVX1
XFILL_0__1329_ vdd gnd FILL
XFILL89250x39750 vdd gnd FILL
XFILL_1__1438_ vdd gnd FILL
XFILL_1__1369_ vdd gnd FILL
XFILL_0__951_ vdd gnd FILL
XFILL_0__882_ vdd gnd FILL
X_904_ _904_/A _904_/B _904_/C _906_/A vdd gnd OAI21X1
X_835_ _835_/A _835_/B _835_/C _836_/A vdd gnd NAND3X1
X_766_ _986_/A debug_state[0] vdd gnd BUFX2
XFILL_0__1114_ vdd gnd FILL
XFILL_0__1045_ vdd gnd FILL
XFILL_1__847_ vdd gnd FILL
XFILL_1_BUFX2_insert9 vdd gnd FILL
XFILL_1__916_ vdd gnd FILL
XFILL_1__1223_ vdd gnd FILL
X_1038_ _1587_/Q _946_/B _946_/C _1585_/Q _1039_/B vdd gnd AOI22X1
X_1107_ _1107_/A _1107_/B _1511_/C _1565_/D vdd gnd AOI21X1
XFILL89850x61350 vdd gnd FILL
XFILL_0_BUFX2_insert81 vdd gnd FILL
XFILL_0_BUFX2_insert70 vdd gnd FILL
XFILL_0__934_ vdd gnd FILL
XFILL_0__796_ vdd gnd FILL
XFILL_0__865_ vdd gnd FILL
X_818_ _856_/A _858_/A _846_/C vdd gnd NOR2X1
X_1587_ _1587_/D _1639_/CLK _1587_/Q vdd gnd DFFPOSX1
XFILL_0__1028_ vdd gnd FILL
XFILL_1__1206_ vdd gnd FILL
XFILL_1__1137_ vdd gnd FILL
XFILL_0__917_ vdd gnd FILL
X_1441_ _1651_/Q _1442_/B _1441_/C _1442_/C vdd gnd OAI21X1
XFILL_0__848_ vdd gnd FILL
XFILL_0__779_ vdd gnd FILL
X_1510_ _1582_/Q _926_/B _926_/C _1550_/Q _1511_/B vdd gnd AOI22X1
X_1372_ _997_/C _1372_/B _1386_/A _1373_/A vdd gnd NAND3X1
X_1639_ _1639_/D _1639_/CLK _1639_/Q vdd gnd DFFPOSX1
XFILL_0__1500_ vdd gnd FILL
XFILL_0__1362_ vdd gnd FILL
XFILL_0__1431_ vdd gnd FILL
XFILL_0__1293_ vdd gnd FILL
X_1355_ _1455_/A _1443_/B _1552_/Q _1357_/A vdd gnd OAI21X1
X_1424_ _1424_/A _1425_/C vdd gnd INVX1
XFILL89850x150 vdd gnd FILL
X_1286_ _1626_/Q _954_/B _954_/C _1624_/Q _1287_/B vdd gnd AOI22X1