* NGSPICE file created from serv_exec_unit.ext - technology: scmos

* Black-box entry subcircuit for FILL abstract view
.subckt FILL vdd gnd
.ends

* Black-box entry subcircuit for DFFPOSX1 abstract view
.subckt DFFPOSX1 D CLK Q vdd gnd
.ends

* Black-box entry subcircuit for NAND2X1 abstract view
.subckt NAND2X1 A B Y vdd gnd
.ends

* Black-box entry subcircuit for AOI21X1 abstract view
.subckt AOI21X1 A B C Y vdd gnd
.ends

* Black-box entry subcircuit for AOI22X1 abstract view
.subckt AOI22X1 A B C D Y vdd gnd
.ends

* Black-box entry subcircuit for BUFX2 abstract view
.subckt BUFX2 A Y vdd gnd
.ends

* Black-box entry subcircuit for NOR2X1 abstract view
.subckt NOR2X1 A B Y vdd gnd
.ends

* Black-box entry subcircuit for AND2X2 abstract view
.subckt AND2X2 A B Y vdd gnd
.ends

* Black-box entry subcircuit for OAI21X1 abstract view
.subckt OAI21X1 A B C Y vdd gnd
.ends

* Black-box entry subcircuit for NAND3X1 abstract view
.subckt NAND3X1 A B C Y vdd gnd
.ends

* Black-box entry subcircuit for INVX1 abstract view
.subckt INVX1 A Y vdd gnd
.ends

* Black-box entry subcircuit for MUX2X1 abstract view
.subckt MUX2X1 A B S Y vdd gnd
.ends

* Black-box entry subcircuit for CLKBUF1 abstract view
.subckt CLKBUF1 A Y vdd gnd
.ends

* Black-box entry subcircuit for INVX2 abstract view
.subckt INVX2 A Y vdd gnd
.ends

* Black-box entry subcircuit for INVX8 abstract view
.subckt INVX8 A Y vdd gnd
.ends

* Black-box entry subcircuit for INVX4 abstract view
.subckt INVX4 A Y vdd gnd
.ends

* Black-box entry subcircuit for OAI22X1 abstract view
.subckt OAI22X1 A B C D Y vdd gnd
.ends

* Black-box entry subcircuit for OR2X2 abstract view
.subckt OR2X2 A B Y vdd gnd
.ends

.subckt serv_exec_unit gnd vdd clk rst_n cmd_valid cmd_ready cmd_op[3] cmd_op[2] cmd_op[1]
+ cmd_op[0] cmd_a[3] cmd_a[2] cmd_a[1] cmd_a[0] cmd_b[3] cmd_b[2] cmd_b[1] cmd_b[0]
+ cmd_last rsp_valid rsp_ready rsp_result[3] rsp_result[2] rsp_result[1] rsp_result[0]
+ rsp_flags[5] rsp_flags[4] rsp_flags[3] rsp_flags[2] rsp_flags[1] rsp_flags[0] rsp_last
+ busy debug_state[2] debug_state[1] debug_state[0]
XFILL_1__728_ vdd gnd FILL
XFILL_1__1104_ vdd gnd FILL
XFILL_1__1035_ vdd gnd FILL
XFILL_0__815_ vdd gnd FILL
XFILL_0__677_ vdd gnd FILL
XFILL_0__746_ vdd gnd FILL
X_1270_ _778_/Y _1311_/CLK _780_/A vdd gnd DFFPOSX1
XFILL_1__1018_ vdd gnd FILL
XFILL_0__600_ vdd gnd FILL
X_981_ _981_/A _981_/B _982_/B vdd gnd NAND2X1
XFILL78750x10950 vdd gnd FILL
XFILL_0__1191_ vdd gnd FILL
XFILL_0__729_ vdd gnd FILL
XFILL_1__993_ vdd gnd FILL
X_1253_ _815_/Y _1278_/CLK _816_/A vdd gnd DFFPOSX1
X_1184_ _1184_/A _1184_/B _1184_/C _1202_/D vdd gnd AOI21X1
X_964_ _964_/A _968_/B _964_/C _964_/D _966_/A vdd gnd AOI22X1
X_895_ _895_/A _972_/B _972_/C _895_/D _897_/A vdd gnd AOI22X1
XFILL_0__1174_ vdd gnd FILL
X_1305_ _1305_/D _1310_/CLK _1305_/Q vdd gnd DFFPOSX1
X_1236_ _1236_/D _1311_/CLK _1236_/Q vdd gnd DFFPOSX1
XFILL_1__976_ vdd gnd FILL
XBUFX2_insert0 rst_n _969_/C vdd gnd BUFX2
X_1098_ _781_/A _794_/B _936_/A _1100_/B vdd gnd AOI21X1
X_1167_ _1202_/Q _783_/B _813_/C _1169_/B vdd gnd AOI21X1
X_680_ _682_/B _682_/A _680_/Y vdd gnd NOR2X1
XFILL_0__994_ vdd gnd FILL
X_878_ _971_/A _891_/A _879_/D vdd gnd AND2X2
XFILL78450x32550 vdd gnd FILL
XFILL_1__830_ vdd gnd FILL
X_947_ _947_/A _965_/B _947_/C _947_/Y vdd gnd AOI21X1
XFILL_1__761_ vdd gnd FILL
X_1021_ _1248_/Q _796_/A _993_/C _1022_/C vdd gnd OAI21X1
XFILL_0__1157_ vdd gnd FILL
XFILL79050x7350 vdd gnd FILL
XFILL_0__1088_ vdd gnd FILL
X_1219_ _881_/Y _1312_/CLK _895_/A vdd gnd DFFPOSX1
XFILL_1__959_ vdd gnd FILL
X_732_ _978_/C _850_/B _732_/C _737_/C vdd gnd AOI21X1
X_801_ _802_/C _802_/B _834_/B _804_/B vdd gnd OAI21X1
X_594_ _729_/B rsp_last vdd gnd BUFX2
X_663_ _663_/A _663_/B _663_/C _664_/A vdd gnd NAND3X1
XFILL_0__977_ vdd gnd FILL
XFILL_0__1011_ vdd gnd FILL
XFILL_1__813_ vdd gnd FILL
XFILL_1__744_ vdd gnd FILL
X_1004_ _980_/A _765_/B _1004_/C _1273_/D vdd gnd AOI21X1
XFILL_1__675_ vdd gnd FILL
XFILL_1__1051_ vdd gnd FILL
XFILL_0__831_ vdd gnd FILL
XFILL_0__900_ vdd gnd FILL
XFILL_0__762_ vdd gnd FILL
XFILL_0__693_ vdd gnd FILL
X_715_ _715_/A _717_/A vdd gnd INVX1
X_646_ _681_/A _977_/A _650_/B vdd gnd NAND2X1
XFILL_1__727_ vdd gnd FILL
XFILL_1__658_ vdd gnd FILL
XFILL_1_BUFX2_insert0 vdd gnd FILL
XFILL_0__814_ vdd gnd FILL
XFILL_0__745_ vdd gnd FILL
XFILL_0__676_ vdd gnd FILL
X_629_ _682_/Y _837_/A _629_/Y vdd gnd NAND2X1
XFILL79050x14550 vdd gnd FILL
X_980_ _980_/A _981_/A _980_/C _982_/A vdd gnd NAND3X1
XFILL_0__1190_ vdd gnd FILL
XFILL_0__728_ vdd gnd FILL
XFILL_0__659_ vdd gnd FILL
X_1252_ _1252_/D _1310_/CLK _727_/A vdd gnd DFFPOSX1
XFILL_1__992_ vdd gnd FILL
X_1183_ _1202_/Q _1184_/A _748_/C _1184_/C vdd gnd OAI21X1
X_894_ _971_/A _907_/A _895_/D vdd gnd AND2X2
X_963_ _963_/A _987_/A _964_/D vdd gnd AND2X2
XFILL_0__1173_ vdd gnd FILL
XBUFX2_insert1 rst_n _993_/C vdd gnd BUFX2
XFILL_1__975_ vdd gnd FILL
X_1304_ _950_/Y _1309_/CLK _949_/A vdd gnd DFFPOSX1
X_1166_ _804_/A _720_/A _1166_/C _1226_/D vdd gnd AOI21X1
X_1235_ _848_/Y _1300_/CLK _863_/A vdd gnd DFFPOSX1
X_1097_ _804_/A _804_/B _1097_/C _1287_/D vdd gnd AOI21X1
XFILL_1_BUFX2_insert60 vdd gnd FILL
XFILL_0__993_ vdd gnd FILL
XFILL_1__760_ vdd gnd FILL
X_877_ _877_/A _970_/B _877_/C _877_/Y vdd gnd AOI21X1
X_1020_ _1256_/Q _794_/B _996_/C _1022_/B vdd gnd AOI21X1
XFILL_1__691_ vdd gnd FILL
X_946_ _964_/A _965_/B _965_/C _947_/C vdd gnd OAI21X1
XFILL_0__1156_ vdd gnd FILL
XFILL_0__1087_ vdd gnd FILL
XFILL_1__889_ vdd gnd FILL
X_1149_ _1149_/A _763_/A _1149_/C _1307_/D vdd gnd AOI21X1
XFILL_1__958_ vdd gnd FILL
X_1218_ _1218_/D _1307_/CLK _1218_/Q vdd gnd DFFPOSX1
X_731_ _735_/A _756_/B _738_/A vdd gnd NAND2X1
X_800_ _999_/C _800_/B _802_/B vdd gnd NAND2X1
X_662_ _999_/C _722_/A _663_/C vdd gnd NOR2X1
X_593_ vdd rsp_flags[0] vdd gnd BUFX2
XFILL_0__976_ vdd gnd FILL
XFILL_0__1010_ vdd gnd FILL
XFILL_1__674_ vdd gnd FILL
X_1003_ cmd_op[2] _765_/B _748_/C _1004_/C vdd gnd OAI21X1
XFILL_1__812_ vdd gnd FILL
XFILL_1__743_ vdd gnd FILL
X_929_ _929_/A _929_/B _929_/C _929_/Y vdd gnd AOI21X1
XFILL_0__1139_ vdd gnd FILL
XFILL_0__830_ vdd gnd FILL
XFILL_0__761_ vdd gnd FILL
XFILL_0__692_ vdd gnd FILL
X_714_ _714_/A _714_/B _714_/Y vdd gnd NOR2X1
X_645_ _666_/A _977_/A vdd gnd INVX1
XFILL_0__959_ vdd gnd FILL
XFILL_1__657_ vdd gnd FILL
XFILL_1__726_ vdd gnd FILL
XFILL_1__1033_ vdd gnd FILL
XFILL_1__1102_ vdd gnd FILL
XFILL_1__588_ vdd gnd FILL
XFILL_1_BUFX2_insert1 vdd gnd FILL
XFILL_0__813_ vdd gnd FILL
XFILL_0__675_ vdd gnd FILL
XFILL_0__744_ vdd gnd FILL
X_628_ _629_/Y _630_/Y _628_/Y vdd gnd NAND2X1
XFILL_1__1016_ vdd gnd FILL
XFILL_0__727_ vdd gnd FILL
XFILL_0__658_ vdd gnd FILL
X_1182_ _1258_/Q _783_/B _936_/A _1184_/B vdd gnd AOI21X1
X_1251_ _818_/Y _1278_/CLK _819_/A vdd gnd DFFPOSX1
XFILL_0__589_ vdd gnd FILL
XFILL_1__991_ vdd gnd FILL
X_893_ _893_/A _966_/B _893_/C _893_/Y vdd gnd AOI21X1
X_962_ _962_/A _974_/B _962_/C _962_/Y vdd gnd AOI21X1
XFILL_0__1172_ vdd gnd FILL
X_1303_ _694_/Y _1309_/CLK _693_/A vdd gnd DFFPOSX1
X_1234_ _1234_/D _1307_/CLK _710_/A vdd gnd DFFPOSX1
XBUFX2_insert2 rst_n _820_/C vdd gnd BUFX2
X_1165_ _720_/A _834_/B _928_/C _1166_/C vdd gnd OAI21X1
X_1096_ _723_/A _928_/C _1097_/C vdd gnd NAND2X1
XFILL_1_BUFX2_insert50 vdd gnd FILL
XFILL_1_BUFX2_insert61 vdd gnd FILL
XFILL_0__992_ vdd gnd FILL
X_945_ _945_/A _968_/B _964_/C _945_/D _947_/A vdd gnd AOI22X1
X_876_ _891_/A _970_/B _969_/C _877_/C vdd gnd OAI21X1
XFILL_1__690_ vdd gnd FILL
XFILL_0__1086_ vdd gnd FILL
XFILL_0__1155_ vdd gnd FILL
X_1217_ _885_/Y _1294_/CLK _899_/A vdd gnd DFFPOSX1
X_1079_ _1184_/A _1079_/B _1079_/C _1196_/D vdd gnd AOI21X1
X_1148_ _726_/A _729_/C _973_/C _1149_/C vdd gnd OAI21X1
XFILL_1__1195_ vdd gnd FILL
X_730_ _730_/A _737_/A _730_/C _756_/B vdd gnd NAND3X1
X_661_ _720_/C _723_/A _663_/B vdd gnd NOR2X1
X_592_ _680_/Y rsp_flags[1] vdd gnd BUFX2
XFILL_0__975_ vdd gnd FILL
XFILL78750x18150 vdd gnd FILL
X_928_ _956_/A _929_/B _928_/C _929_/C vdd gnd OAI21X1
XFILL_1__673_ vdd gnd FILL
X_859_ _859_/A _887_/B _985_/A _859_/D _861_/A vdd gnd AOI22X1
XFILL78750x61350 vdd gnd FILL
X_1002_ _999_/Y _1002_/B _1002_/C _1277_/D vdd gnd AOI21X1
XFILL_0__1138_ vdd gnd FILL
XFILL_0__1069_ vdd gnd FILL
XFILL_0__760_ vdd gnd FILL
XFILL_0__691_ vdd gnd FILL
XFILL_1__1178_ vdd gnd FILL
X_713_ _715_/A _713_/B _844_/S _714_/B vdd gnd MUX2X1
X_644_ _975_/A _749_/A _977_/D vdd gnd NAND2X1
XFILL_0__958_ vdd gnd FILL
XFILL_0__889_ vdd gnd FILL
XFILL_1__587_ vdd gnd FILL
XFILL_1__1101_ vdd gnd FILL
XFILL_1__1032_ vdd gnd FILL
XFILL_0__812_ vdd gnd FILL
XFILL_0__674_ vdd gnd FILL
XFILL_0_CLKBUF1_insert9 vdd gnd FILL
XFILL_0__743_ vdd gnd FILL
X_627_ _631_/Y _639_/Y _628_/Y _627_/Y vdd gnd OAI21X1
XFILL_1__708_ vdd gnd FILL
XFILL_1__1015_ vdd gnd FILL
XFILL_0__588_ vdd gnd FILL
XFILL_0__657_ vdd gnd FILL
XFILL_0__726_ vdd gnd FILL
X_1181_ _845_/A _1181_/B _1234_/D vdd gnd NOR2X1
X_1250_ _1250_/D _1307_/CLK _705_/A vdd gnd DFFPOSX1
X_961_ _987_/A _974_/B _973_/C _962_/C vdd gnd OAI21X1
X_892_ _907_/A _966_/B _969_/C _893_/C vdd gnd OAI21X1
XFILL_0__1171_ vdd gnd FILL
X_1302_ _954_/Y _1312_/CLK _968_/A vdd gnd DFFPOSX1
X_1233_ _852_/Y _1300_/CLK _867_/A vdd gnd DFFPOSX1
XFILL_0__709_ vdd gnd FILL
XFILL_1__973_ vdd gnd FILL
X_1095_ _950_/A _1095_/B _1095_/C _1293_/D vdd gnd AOI21X1
XBUFX2_insert3 rst_n _965_/C vdd gnd BUFX2
X_1164_ _1184_/A _1164_/B _1164_/C _1242_/D vdd gnd AOI21X1
XFILL_1_BUFX2_insert51 vdd gnd FILL
XFILL_1_BUFX2_insert40 vdd gnd FILL
XFILL_0__991_ vdd gnd FILL
X_944_ _955_/A _960_/A _945_/D vdd gnd AND2X2
X_875_ _875_/A _887_/B _968_/C _875_/D _877_/A vdd gnd AOI22X1
XFILL_0__1154_ vdd gnd FILL
XFILL_0__1085_ vdd gnd FILL
XFILL_1__887_ vdd gnd FILL
X_1216_ _1216_/D _1309_/CLK _1216_/Q vdd gnd DFFPOSX1
XFILL_1__956_ vdd gnd FILL
X_1078_ _1196_/Q _1184_/A _997_/C _1079_/C vdd gnd OAI21X1
X_1147_ _750_/A _810_/A _768_/B _1149_/A vdd gnd NAND3X1
XFILL_1__1194_ vdd gnd FILL
X_591_ _671_/Y rsp_flags[2] vdd gnd BUFX2
X_660_ _720_/A _720_/B _663_/A vdd gnd NOR2X1
XFILL_0__974_ vdd gnd FILL
X_858_ _866_/A _871_/A _859_/D vdd gnd AND2X2
XFILL_1__741_ vdd gnd FILL
X_927_ _927_/A _960_/B _927_/C _927_/D _929_/A vdd gnd AOI22X1
XFILL_1__810_ vdd gnd FILL
X_1001_ _999_/C _800_/B _928_/C _1002_/C vdd gnd OAI21X1
XCLKBUF1_insert10 clk _1309_/CLK vdd gnd CLKBUF1
X_789_ cmd_b[3] _805_/B _790_/A vdd gnd NAND2X1
XFILL_0__1137_ vdd gnd FILL
XFILL_0__1068_ vdd gnd FILL
XFILL_1__939_ vdd gnd FILL
XFILL_0__690_ vdd gnd FILL
XFILL_1__1177_ vdd gnd FILL
X_712_ _712_/A _717_/B _991_/A _713_/B vdd gnd OAI21X1
X_643_ _981_/A _749_/A vdd gnd INVX1
XFILL_0__957_ vdd gnd FILL
XFILL_0__888_ vdd gnd FILL
XFILL_1__724_ vdd gnd FILL
XFILL_1__586_ vdd gnd FILL
XFILL_1__655_ vdd gnd FILL
XFILL_1__1031_ vdd gnd FILL
XFILL_1_BUFX2_insert3 vdd gnd FILL
XFILL_0__742_ vdd gnd FILL
XFILL_0__811_ vdd gnd FILL
XFILL_0__673_ vdd gnd FILL
X_626_ _681_/Y _627_/Y _632_/Y _626_/Y vdd gnd NAND3X1
XFILL_1__638_ vdd gnd FILL
XFILL_1__707_ vdd gnd FILL
XFILL_0__725_ vdd gnd FILL
XFILL_0__587_ vdd gnd FILL
XFILL_0__656_ vdd gnd FILL
X_1180_ _710_/A _1180_/B _844_/S _1181_/B vdd gnd MUX2X1
X_609_ _687_/Y _609_/Y vdd gnd INVX1
X_891_ _891_/A _972_/B _968_/C _891_/D _893_/A vdd gnd AOI22X1
X_960_ _960_/A _960_/B _972_/C _960_/D _962_/A vdd gnd AOI22X1
XFILL_0__1170_ vdd gnd FILL
XFILL78750x46950 vdd gnd FILL
XFILL_0__708_ vdd gnd FILL
X_1232_ _1232_/D _1278_/CLK _1232_/Q vdd gnd DFFPOSX1
XFILL_0__639_ vdd gnd FILL
X_1301_ _1301_/D _1301_/CLK _1301_/Q vdd gnd DFFPOSX1
XFILL_1__972_ vdd gnd FILL
XBUFX2_insert4 rst_n _748_/C vdd gnd BUFX2
X_1094_ _640_/B _950_/A _928_/C _1095_/C vdd gnd OAI21X1
X_1163_ _842_/A _1184_/A _949_/C _1164_/C vdd gnd OAI21X1
XFILL_1_BUFX2_insert41 vdd gnd FILL
XFILL_1_BUFX2_insert30 vdd gnd FILL
XFILL_0__990_ vdd gnd FILL
X_874_ _890_/A _887_/A _875_/D vdd gnd AND2X2
X_943_ _943_/A _943_/B _943_/C _943_/Y vdd gnd AOI21X1
XFILL78750x21750 vdd gnd FILL
XFILL_0__1153_ vdd gnd FILL
XFILL_0__1084_ vdd gnd FILL
XFILL_1__886_ vdd gnd FILL
X_1215_ _889_/Y _1294_/CLK _903_/A vdd gnd DFFPOSX1
XFILL_1__955_ vdd gnd FILL
X_1146_ _1184_/A _1146_/B _1146_/C _1198_/D vdd gnd AOI21X1
X_1077_ _1212_/Q _996_/B _753_/C _1079_/B vdd gnd AOI21X1
X_590_ _670_/Y rsp_flags[3] vdd gnd BUFX2
XFILL_0__973_ vdd gnd FILL
X_788_ _796_/A _788_/B _788_/C _788_/Y vdd gnd AOI21X1
X_1000_ _832_/A _832_/B _834_/B _1002_/B vdd gnd OAI21X1
XFILL_1__671_ vdd gnd FILL
XFILL_1__740_ vdd gnd FILL
X_926_ _963_/A _952_/A _927_/D vdd gnd AND2X2
X_857_ _857_/A _929_/B _857_/C _857_/Y vdd gnd AOI21X1
XCLKBUF1_insert11 clk _1300_/CLK vdd gnd CLKBUF1
XFILL_0__1136_ vdd gnd FILL
XFILL_0__1067_ vdd gnd FILL
XFILL_1__869_ vdd gnd FILL
XFILL_1__938_ vdd gnd FILL
X_1129_ _832_/B _834_/B _1133_/B vdd gnd NAND2X1
X_642_ _729_/C _797_/C _642_/Y vdd gnd NOR2X1
X_711_ cmd_a[1] _805_/B _991_/A vdd gnd NAND2X1
XFILL_0__887_ vdd gnd FILL
XFILL_0__956_ vdd gnd FILL
XFILL78450x43350 vdd gnd FILL
XFILL_1__654_ vdd gnd FILL
XFILL_1__723_ vdd gnd FILL
X_909_ _909_/A _943_/B _909_/C _909_/Y vdd gnd AOI21X1
XFILL_0__1119_ vdd gnd FILL
XFILL_1_BUFX2_insert4 vdd gnd FILL
XFILL_0__741_ vdd gnd FILL
XFILL_0__810_ vdd gnd FILL
XFILL_0__672_ vdd gnd FILL
X_625_ _664_/Y _625_/B _650_/Y _625_/Y vdd gnd NAND3X1
XFILL_0__939_ vdd gnd FILL
XFILL_1__637_ vdd gnd FILL
XFILL_1__706_ vdd gnd FILL
XFILL_1__1013_ vdd gnd FILL
XFILL_0__655_ vdd gnd FILL
XFILL_0__724_ vdd gnd FILL
XFILL_0__586_ vdd gnd FILL
X_608_ _664_/Y _625_/B _608_/Y vdd gnd NOR2X1
X_890_ _890_/A _903_/A _891_/D vdd gnd AND2X2
XFILL_0__638_ vdd gnd FILL
XFILL_0__707_ vdd gnd FILL
X_1162_ _1198_/Q _791_/B _996_/C _1164_/B vdd gnd AOI21X1
X_1231_ _857_/Y _1300_/CLK _871_/A vdd gnd DFFPOSX1
X_1300_ _958_/Y _1300_/CLK _972_/A vdd gnd DFFPOSX1
XBUFX2_insert5 rst_n _997_/C vdd gnd BUFX2
X_1093_ cmd_a[0] _1309_/Q _836_/S _1095_/B vdd gnd MUX2X1
XFILL_1_BUFX2_insert20 vdd gnd FILL
XFILL_1_BUFX2_insert31 vdd gnd FILL
XFILL_1_BUFX2_insert53 vdd gnd FILL
XFILL_1_CLKBUF1_insert10 vdd gnd FILL
XFILL79050x25350 vdd gnd FILL
X_873_ _873_/A _885_/B _873_/C _873_/Y vdd gnd AOI21X1
X_942_ _960_/A _943_/B _965_/C _943_/C vdd gnd OAI21X1
XFILL_0__1152_ vdd gnd FILL
XFILL_0__1083_ vdd gnd FILL
XFILL_1__885_ vdd gnd FILL
X_1145_ _1198_/Q _1184_/A _949_/C _1146_/C vdd gnd OAI21X1
X_1214_ _1214_/D _1300_/CLK _720_/B vdd gnd DFFPOSX1
XFILL_1__1192_ vdd gnd FILL
X_1076_ _1076_/A _934_/A _1184_/A vdd gnd AND2X2
XFILL_0__972_ vdd gnd FILL
X_925_ _925_/A _965_/B _925_/C _925_/Y vdd gnd AOI21X1
X_787_ _794_/A _796_/A _820_/C _788_/C vdd gnd OAI21X1
XFILL_1__670_ vdd gnd FILL
X_856_ _871_/A _929_/B _973_/C _857_/C vdd gnd OAI21X1
XCLKBUF1_insert12 clk _1311_/CLK vdd gnd CLKBUF1
XFILL_0__1135_ vdd gnd FILL
XFILL_0__1066_ vdd gnd FILL
X_1128_ _999_/A _999_/B _720_/C _1133_/A vdd gnd OAI21X1
XFILL_1__799_ vdd gnd FILL
X_1059_ _798_/C _1059_/B _730_/C _1066_/B vdd gnd OAI21X1
XFILL_1__1175_ vdd gnd FILL
X_710_ _710_/A _712_/A vdd gnd INVX1
X_641_ _726_/A _797_/C vdd gnd INVX2
XFILL_0__886_ vdd gnd FILL
XFILL_0__955_ vdd gnd FILL
X_908_ _923_/A _943_/B _965_/C _909_/C vdd gnd OAI21X1
XFILL_1__584_ vdd gnd FILL
XFILL_1__653_ vdd gnd FILL
X_839_ _859_/A _989_/B _841_/B vdd gnd NAND2X1
XFILL_0__1049_ vdd gnd FILL
XFILL77850x46950 vdd gnd FILL
XFILL_0__1118_ vdd gnd FILL
XFILL_1__1158_ vdd gnd FILL
XFILL_1__1089_ vdd gnd FILL
XFILL_0__671_ vdd gnd FILL
XFILL_0__740_ vdd gnd FILL
X_624_ _676_/Y _624_/Y vdd gnd INVX1
XFILL_0__938_ vdd gnd FILL
XFILL_0__869_ vdd gnd FILL
XFILL_1__1012_ vdd gnd FILL
XFILL_0__654_ vdd gnd FILL
XFILL_0__723_ vdd gnd FILL
XFILL_0__585_ vdd gnd FILL
X_607_ _609_/Y _608_/Y _607_/Y vdd gnd NOR2X1
XFILL_1__970_ vdd gnd FILL
XFILL_0__637_ vdd gnd FILL
XFILL_0__706_ vdd gnd FILL
X_1161_ _1161_/A _1161_/B _1161_/C _1258_/D vdd gnd AOI21X1
X_1092_ _821_/A _1092_/B _1092_/C _1297_/D vdd gnd AOI21X1
XBUFX2_insert6 rst_n _949_/C vdd gnd BUFX2
X_1230_ _1230_/D _599_/CLK _720_/C vdd gnd DFFPOSX1
XFILL_1_BUFX2_insert54 vdd gnd FILL
XFILL_1_BUFX2_insert21 vdd gnd FILL
XFILL77550x43350 vdd gnd FILL
XFILL_1_BUFX2_insert43 vdd gnd FILL
XFILL_1_CLKBUF1_insert11 vdd gnd FILL
X_941_ _941_/A _960_/B _964_/C _941_/D _943_/A vdd gnd AOI22X1
X_872_ _887_/A _885_/B _969_/C _873_/C vdd gnd OAI21X1
XFILL_0__1151_ vdd gnd FILL
XFILL78450x28950 vdd gnd FILL
XFILL_0__1082_ vdd gnd FILL
X_1213_ _893_/Y _1312_/CLK _907_/A vdd gnd DFFPOSX1
XFILL_1__953_ vdd gnd FILL
X_1144_ _1206_/Q _791_/B _992_/C _1146_/B vdd gnd AOI21X1
X_1075_ _763_/A _932_/B _811_/C _1076_/A vdd gnd OAI21X1
XFILL_1__1191_ vdd gnd FILL
XFILL_0__971_ vdd gnd FILL
X_924_ _952_/A _965_/B _965_/C _925_/C vdd gnd OAI21X1
X_786_ _786_/A _794_/B _816_/C _788_/B vdd gnd AOI21X1
X_855_ _855_/A _987_/B _927_/C _855_/D _857_/A vdd gnd AOI22X1
XCLKBUF1_insert13 clk _1278_/CLK vdd gnd CLKBUF1
XFILL_0__1134_ vdd gnd FILL
XFILL_0__1065_ vdd gnd FILL
XFILL_1__867_ vdd gnd FILL
XFILL_1__936_ vdd gnd FILL
X_1058_ _798_/A cmd_valid _1059_/B vdd gnd AND2X2
X_1127_ _1127_/A _1127_/B _939_/C _1238_/D vdd gnd AOI21X1
XFILL_1__1174_ vdd gnd FILL
XFILL77850x150 vdd gnd FILL
X_640_ _640_/A _640_/B _640_/Y vdd gnd NAND2X1
XFILL_0__954_ vdd gnd FILL
XFILL_0__885_ vdd gnd FILL
X_907_ _907_/A _972_/B _972_/C _907_/D _909_/A vdd gnd AOI22X1
X_838_ _950_/A _838_/B _838_/C _838_/Y vdd gnd AOI21X1
XFILL_1__721_ vdd gnd FILL
XFILL_1__583_ vdd gnd FILL
X_769_ cmd_b[2] _774_/B _770_/A vdd gnd NAND2X1
XFILL_0__1117_ vdd gnd FILL
XFILL_0__1048_ vdd gnd FILL
XFILL_1_BUFX2_insert6 vdd gnd FILL
XFILL_1__919_ vdd gnd FILL
XFILL_1__1157_ vdd gnd FILL
XFILL_1__1088_ vdd gnd FILL
XFILL_0__670_ vdd gnd FILL
X_623_ _640_/B _837_/A _623_/Y vdd gnd NAND2X1
XFILL_0__937_ vdd gnd FILL
XFILL_0__868_ vdd gnd FILL
XFILL78150x25350 vdd gnd FILL
XFILL_0__799_ vdd gnd FILL
XFILL78750x72150 vdd gnd FILL
XFILL_1__704_ vdd gnd FILL
XFILL_1__635_ vdd gnd FILL
XFILL_1__1011_ vdd gnd FILL
XFILL_0__584_ vdd gnd FILL
XFILL_0__653_ vdd gnd FILL
XFILL_0__722_ vdd gnd FILL
X_606_ _616_/Y _607_/Y _610_/Y _612_/Y _606_/Y vdd gnd AOI22X1
XFILL_1__618_ vdd gnd FILL
XFILL_0__705_ vdd gnd FILL
XFILL_0__636_ vdd gnd FILL
X_1160_ _1258_/Q _1161_/A _748_/C _1161_/C vdd gnd OAI21X1
X_1091_ _1297_/Q _821_/A _993_/C _1092_/C vdd gnd OAI21X1
XBUFX2_insert7 rst_n _928_/C vdd gnd BUFX2
XFILL_1_BUFX2_insert44 vdd gnd FILL
XFILL_1_BUFX2_insert33 vdd gnd FILL
X_1289_ _990_/Y _1294_/CLK _989_/A vdd gnd DFFPOSX1
X_871_ _871_/A _887_/B _985_/A _871_/D _873_/A vdd gnd AOI22X1
X_940_ _963_/A _956_/A _941_/D vdd gnd AND2X2
XFILL_0__1150_ vdd gnd FILL
XFILL_0__1081_ vdd gnd FILL
XFILL_1__883_ vdd gnd FILL
X_1212_ _1212_/D _1278_/CLK _1212_/Q vdd gnd DFFPOSX1
XFILL_0__619_ vdd gnd FILL
XFILL_1__952_ vdd gnd FILL
X_1143_ _1184_/A _1143_/B _1143_/C _1206_/D vdd gnd AOI21X1
X_1074_ _950_/A _1074_/B _1074_/C _1200_/D vdd gnd AOI21X1
XFILL_1__1190_ vdd gnd FILL
XFILL_0__970_ vdd gnd FILL
X_923_ _923_/A _968_/B _964_/C _923_/D _925_/A vdd gnd AOI22X1
X_854_ _854_/A _987_/B _855_/D vdd gnd NOR2X1
X_785_ _796_/A _785_/B _785_/C _785_/Y vdd gnd AOI21X1
XCLKBUF1_insert14 clk _1294_/CLK vdd gnd CLKBUF1
XFILL_0__1133_ vdd gnd FILL
XFILL_0__1064_ vdd gnd FILL
XFILL_1__866_ vdd gnd FILL
XFILL_1__935_ vdd gnd FILL
XFILL_1__797_ vdd gnd FILL
X_1126_ _938_/A _938_/B _1238_/Q _1127_/B vdd gnd OAI21X1
X_1057_ _1161_/A _1057_/B _1057_/C _1212_/D vdd gnd AOI21X1
XFILL_0__884_ vdd gnd FILL
XFILL_0__953_ vdd gnd FILL
X_906_ _971_/A _919_/A _907_/D vdd gnd AND2X2
XFILL_1__651_ vdd gnd FILL
X_837_ _837_/A _950_/A _993_/C _838_/C vdd gnd OAI21X1
XFILL_1__720_ vdd gnd FILL
X_768_ _768_/A _768_/B _768_/C _768_/Y vdd gnd AOI21X1
X_699_ _810_/A _766_/A vdd gnd INVX1
XFILL_0__1116_ vdd gnd FILL
XFILL_0__1047_ vdd gnd FILL
X_1109_ _1109_/A _729_/B _1110_/A vdd gnd NOR2X1
XFILL_1_BUFX2_insert7 vdd gnd FILL
XFILL_1__849_ vdd gnd FILL
X_622_ _640_/B _622_/Y vdd gnd INVX1
XFILL_0__867_ vdd gnd FILL
XFILL_0__936_ vdd gnd FILL
XFILL_0__798_ vdd gnd FILL
XFILL_1__634_ vdd gnd FILL
XFILL_1__703_ vdd gnd FILL
XFILL_0__721_ vdd gnd FILL
XFILL_1__1139_ vdd gnd FILL
XFILL_0__583_ vdd gnd FILL
XFILL_0__652_ vdd gnd FILL
X_605_ _606_/Y _979_/A vdd gnd INVX1
XFILL_0__919_ vdd gnd FILL
XFILL_1__617_ vdd gnd FILL
XFILL_0__635_ vdd gnd FILL
XFILL_0__704_ vdd gnd FILL
XBUFX2_insert8 rst_n _973_/C vdd gnd BUFX2
X_1090_ _1248_/Q _794_/B _753_/C _1092_/B vdd gnd AOI21X1
X_1288_ _714_/Y _1307_/CLK _715_/A vdd gnd DFFPOSX1
XFILL_1_BUFX2_insert23 vdd gnd FILL
XFILL_1_BUFX2_insert34 vdd gnd FILL
XFILL_1_BUFX2_insert56 vdd gnd FILL
XFILL_1_CLKBUF1_insert13 vdd gnd FILL
X_870_ _890_/A _883_/A _871_/D vdd gnd AND2X2
XFILL_0__1080_ vdd gnd FILL
XFILL_0__618_ vdd gnd FILL
XFILL_1__882_ vdd gnd FILL
X_1142_ _1206_/Q _1184_/A _997_/C _1143_/C vdd gnd OAI21X1
X_999_ _999_/A _999_/B _999_/C _999_/Y vdd gnd OAI21X1
X_1211_ _897_/Y _1300_/CLK _911_/A vdd gnd DFFPOSX1
X_1073_ _1200_/Q _950_/A _949_/C _1074_/C vdd gnd OAI21X1
X_853_ _890_/A _853_/Y vdd gnd INVX8
X_784_ _786_/A _796_/A _993_/C _785_/C vdd gnd OAI21X1
X_922_ _955_/A _945_/A _923_/D vdd gnd AND2X2
XCLKBUF1_insert15 clk _1312_/CLK vdd gnd CLKBUF1
XFILL_0__1132_ vdd gnd FILL
XFILL_0__1063_ vdd gnd FILL
XFILL_1__865_ vdd gnd FILL
XFILL_1__796_ vdd gnd FILL
X_1125_ _937_/A _1125_/B _936_/C _1127_/A vdd gnd NAND3X1
X_1056_ _1212_/Q _1161_/A _997_/C _1057_/C vdd gnd OAI21X1
XFILL_1__1172_ vdd gnd FILL
XFILL_0__883_ vdd gnd FILL
XFILL_0__952_ vdd gnd FILL
X_905_ _905_/A _966_/B _905_/C _905_/Y vdd gnd AOI21X1
XFILL_1__650_ vdd gnd FILL
X_836_ cmd_b[0] _836_/B _836_/S _838_/B vdd gnd MUX2X1
XFILL78750x32550 vdd gnd FILL
X_767_ _810_/A _768_/B _928_/C _768_/C vdd gnd OAI21X1
X_698_ _750_/A _810_/B vdd gnd INVX1
XFILL_0__1115_ vdd gnd FILL
XFILL_0__1046_ vdd gnd FILL
XFILL_1__917_ vdd gnd FILL
X_1108_ _759_/A _735_/A _658_/A _1109_/A vdd gnd AOI21X1
X_1039_ _1232_/Q _996_/B _996_/C _1041_/B vdd gnd AOI21X1
XFILL_1__779_ vdd gnd FILL
XFILL_1__1086_ vdd gnd FILL
XFILL_1__1155_ vdd gnd FILL
X_621_ _622_/Y _637_/Y _621_/Y vdd gnd NAND2X1
XFILL_0__866_ vdd gnd FILL
XFILL_0__935_ vdd gnd FILL
XFILL_0__797_ vdd gnd FILL
X_819_ _819_/A _992_/B _819_/C _821_/B vdd gnd AOI21X1
XFILL_0__1029_ vdd gnd FILL
XFILL_0__651_ vdd gnd FILL
XFILL_0__720_ vdd gnd FILL
XFILL_1__1138_ vdd gnd FILL
XFILL_1__1069_ vdd gnd FILL
XFILL_0__582_ vdd gnd FILL
X_604_ _783_/B _604_/Y vdd gnd INVX1
XFILL_0__849_ vdd gnd FILL
XFILL_0__918_ vdd gnd FILL
XFILL_0__634_ vdd gnd FILL
XFILL_0__703_ vdd gnd FILL
XFILL_1_BUFX2_insert24 vdd gnd FILL
XFILL_1_BUFX2_insert57 vdd gnd FILL
X_1287_ _1287_/D _1300_/CLK _723_/A vdd gnd DFFPOSX1
XFILL_1_BUFX2_insert46 vdd gnd FILL
XFILL_1_CLKBUF1_insert14 vdd gnd FILL
XBUFX2_insert60 _697_/Y _805_/B vdd gnd BUFX2
XFILL_1__950_ vdd gnd FILL
XFILL_0__617_ vdd gnd FILL
X_1210_ _1210_/D _1311_/CLK _1210_/Q vdd gnd DFFPOSX1
X_1141_ _1196_/Q _996_/B _807_/C _1143_/B vdd gnd AOI21X1
X_998_ _998_/A _998_/B _998_/C _998_/Y vdd gnd AOI21X1
X_1072_ cmd_a[2] _693_/A _948_/S _1074_/B vdd gnd MUX2X1
X_921_ _921_/A _966_/B _921_/C _921_/Y vdd gnd AOI21X1
X_783_ _783_/A _783_/B _813_/C _785_/B vdd gnd AOI21X1
X_852_ _852_/A _928_/C _852_/Y vdd gnd AND2X2
XCLKBUF1_insert16 clk _1310_/CLK vdd gnd CLKBUF1
XFILL_0__1131_ vdd gnd FILL
XFILL_0__1062_ vdd gnd FILL
XFILL_1__933_ vdd gnd FILL
X_1055_ _1216_/Q _996_/B _996_/C _1057_/B vdd gnd AOI21X1
X_1124_ _1124_/A _843_/B _779_/A _1125_/B vdd gnd OAI21X1
XFILL_1__1171_ vdd gnd FILL
XFILL_0__951_ vdd gnd FILL
XFILL_0__882_ vdd gnd FILL
XFILL_1_CLKBUF1_insert9 vdd gnd FILL
XFILL79050x36150 vdd gnd FILL
X_904_ _919_/A _966_/B _969_/C _905_/C vdd gnd OAI21X1
X_697_ _798_/C _697_/Y vdd gnd INVX4
X_766_ _766_/A _811_/C _766_/C _768_/A vdd gnd AOI21X1
X_835_ _835_/A _835_/B _848_/C _835_/Y vdd gnd AOI21X1
XFILL_0__1114_ vdd gnd FILL
XFILL_0__1045_ vdd gnd FILL
XFILL_1__916_ vdd gnd FILL
XFILL_1__847_ vdd gnd FILL
X_1107_ _658_/A _756_/B _1112_/A vdd gnd NAND2X1
X_1038_ _821_/A _1038_/B _1038_/C _1232_/D vdd gnd AOI21X1
XFILL_1__1085_ vdd gnd FILL
XFILL_1__1154_ vdd gnd FILL
X_620_ _623_/Y _621_/Y _620_/Y vdd gnd NAND2X1
XFILL_0__934_ vdd gnd FILL
XFILL_0__865_ vdd gnd FILL
XFILL_0__796_ vdd gnd FILL
X_818_ _821_/A _818_/B _818_/C _818_/Y vdd gnd AOI21X1
XFILL_1__701_ vdd gnd FILL
XFILL_1__632_ vdd gnd FILL
X_749_ _749_/A _765_/B _749_/C _749_/Y vdd gnd AOI21X1
XFILL_0__1028_ vdd gnd FILL
XFILL_0__650_ vdd gnd FILL
XFILL_1__1137_ vdd gnd FILL
XFILL_1__1068_ vdd gnd FILL
X_603_ _682_/Y _604_/Y _603_/Y vdd gnd NAND2X1
XFILL_0__917_ vdd gnd FILL
XFILL_0__779_ vdd gnd FILL
XFILL_0__848_ vdd gnd FILL
XFILL_1__615_ vdd gnd FILL
XFILL_0__633_ vdd gnd FILL
XFILL_0__702_ vdd gnd FILL
XFILL_1_BUFX2_insert47 vdd gnd FILL
XFILL_1_BUFX2_insert36 vdd gnd FILL
X_1286_ _719_/Y _1307_/CLK _753_/A vdd gnd DFFPOSX1
XBUFX2_insert50 _726_/Y _866_/A vdd gnd BUFX2
XBUFX2_insert61 _697_/Y _933_/A vdd gnd BUFX2
XFILL_1__880_ vdd gnd FILL
XFILL_0__616_ vdd gnd FILL
X_997_ _997_/A _998_/A _997_/C _998_/C vdd gnd OAI21X1
X_1140_ _1140_/A _1140_/B _848_/C _1214_/D vdd gnd AOI21X1
X_1071_ _1071_/A _1071_/B _990_/C _1204_/D vdd gnd AOI21X1
X_1269_ _1269_/D _599_/CLK _681_/A vdd gnd DFFPOSX1
X_851_ _854_/A _929_/B _851_/C _852_/A vdd gnd OAI21X1
X_920_ _945_/A _965_/B _965_/C _921_/C vdd gnd OAI21X1
X_782_ _998_/A _782_/B _782_/C _782_/Y vdd gnd AOI21X1
XCLKBUF1_insert17 clk _1307_/CLK vdd gnd CLKBUF1
XFILL_0__1130_ vdd gnd FILL
XFILL_0__1061_ vdd gnd FILL
XFILL_1__863_ vdd gnd FILL
XFILL_1__932_ vdd gnd FILL
XFILL_1__794_ vdd gnd FILL
X_1054_ _1161_/A _1054_/B _1054_/C _1216_/D vdd gnd AOI21X1
X_1123_ _1246_/Q _1124_/A vdd gnd INVX1
XFILL_1__1170_ vdd gnd FILL
XFILL_0__950_ vdd gnd FILL
XFILL_0__881_ vdd gnd FILL
X_903_ _903_/A _972_/B _968_/C _903_/D _905_/A vdd gnd AOI22X1
X_834_ _834_/A _834_/B _927_/C _835_/A vdd gnd NAND3X1
X_765_ cmd_last _765_/B _766_/C vdd gnd NOR2X1
X_696_ _729_/C _797_/C _798_/C vdd gnd NAND2X1
XFILL_0__1113_ vdd gnd FILL
XFILL_0__1044_ vdd gnd FILL
XFILL_1__777_ vdd gnd FILL
X_1106_ _1106_/A _1106_/B _848_/C _1271_/D vdd gnd AOI21X1
XFILL_1__915_ vdd gnd FILL
XFILL_1__846_ vdd gnd FILL
X_1037_ _1232_/Q _821_/A _997_/C _1038_/C vdd gnd OAI21X1
XFILL_1__1084_ vdd gnd FILL
XFILL_0_BUFX2_insert60 vdd gnd FILL
XFILL_0__864_ vdd gnd FILL
XFILL_0__933_ vdd gnd FILL
XFILL_0__795_ vdd gnd FILL
XFILL_1__631_ vdd gnd FILL
X_817_ _819_/A _821_/A _820_/C _818_/C vdd gnd OAI21X1
XFILL_1__700_ vdd gnd FILL
X_748_ cmd_op[3] _765_/B _748_/C _749_/C vdd gnd OAI21X1
X_679_ _679_/A _682_/A vdd gnd INVX1
XFILL_0__1027_ vdd gnd FILL
XFILL_1__829_ vdd gnd FILL
X_602_ _604_/Y _615_/Y _603_/Y _602_/Y vdd gnd OAI21X1
XFILL_0__916_ vdd gnd FILL
XFILL_0__847_ vdd gnd FILL
XFILL_0__778_ vdd gnd FILL
XFILL_1__614_ vdd gnd FILL
XFILL_0__701_ vdd gnd FILL
XFILL_1__1119_ vdd gnd FILL
XFILL_0__632_ vdd gnd FILL
XFILL78150x36150 vdd gnd FILL
XFILL_1_BUFX2_insert26 vdd gnd FILL
X_1285_ _994_/Y _1311_/CLK _996_/A vdd gnd DFFPOSX1
XFILL_1_BUFX2_insert59 vdd gnd FILL
XFILL_1_BUFX2_insert37 vdd gnd FILL
XFILL_1_CLKBUF1_insert16 vdd gnd FILL
XFILL79050x64950 vdd gnd FILL
XBUFX2_insert51 _828_/Y _965_/B vdd gnd BUFX2
XBUFX2_insert40 _689_/Y _985_/C vdd gnd BUFX2
XFILL_0__615_ vdd gnd FILL
X_996_ _996_/A _996_/B _996_/C _998_/B vdd gnd AOI21X1
X_1070_ _1070_/A _1070_/B _1070_/C _1071_/A vdd gnd NAND3X1
X_1268_ _782_/Y _1278_/CLK _781_/A vdd gnd DFFPOSX1
X_1199_ _921_/Y _1312_/CLK _945_/A vdd gnd DFFPOSX1
X_781_ _781_/A _998_/A _820_/C _782_/C vdd gnd OAI21X1
X_850_ _863_/A _850_/B _985_/A _851_/C vdd gnd NAND3X1
XCLKBUF1_insert18 clk _1301_/CLK vdd gnd CLKBUF1
XFILL_0__1060_ vdd gnd FILL
XFILL_1__862_ vdd gnd FILL
X_979_ _979_/A _982_/C vdd gnd INVX1
XFILL_1__793_ vdd gnd FILL
X_1122_ _1122_/A _1122_/B _939_/C _1246_/D vdd gnd AOI21X1
X_1053_ _1216_/Q _1161_/A _997_/C _1054_/C vdd gnd OAI21X1
XFILL_0__1189_ vdd gnd FILL
XFILL_0__880_ vdd gnd FILL
X_833_ _833_/A _833_/B _833_/C _833_/Y vdd gnd NAND3X1
X_902_ _955_/A _915_/A _903_/D vdd gnd AND2X2
X_764_ _764_/A _798_/A _764_/C _768_/B vdd gnd OAI21X1
X_695_ _973_/C _695_/Y vdd gnd INVX8
XFILL_0__1112_ vdd gnd FILL
XFILL_0__1043_ vdd gnd FILL
XFILL_1__776_ vdd gnd FILL
X_1105_ _1105_/A _1105_/B _1106_/A vdd gnd NAND2X1
X_1036_ _1236_/Q _992_/B _992_/C _1038_/B vdd gnd AOI21X1
XFILL_1__1152_ vdd gnd FILL
XFILL_0_BUFX2_insert50 vdd gnd FILL
XFILL_0_BUFX2_insert61 vdd gnd FILL
XFILL_0__863_ vdd gnd FILL
XFILL_0__932_ vdd gnd FILL
XFILL_0__794_ vdd gnd FILL
XFILL_1__630_ vdd gnd FILL
X_816_ _816_/A _992_/B _816_/C _818_/B vdd gnd AOI21X1
X_747_ cmd_valid _747_/B _765_/B vdd gnd NAND2X1
X_678_ _977_/B _682_/B _678_/C _678_/Y vdd gnd OAI21X1
XFILL_0__1026_ vdd gnd FILL
XFILL_1__759_ vdd gnd FILL
X_1019_ _1019_/A _1019_/B _1019_/C _1252_/D vdd gnd AOI21X1
XFILL_1__1135_ vdd gnd FILL
XFILL_1__1066_ vdd gnd FILL
X_601_ _625_/B _604_/Y _601_/Y vdd gnd NAND2X1
XFILL_0__777_ vdd gnd FILL
XFILL_0__915_ vdd gnd FILL
XFILL_0__846_ vdd gnd FILL
XFILL_0__1009_ vdd gnd FILL
XFILL_0__631_ vdd gnd FILL
XFILL_1__1049_ vdd gnd FILL
XFILL_0__700_ vdd gnd FILL
XFILL_1__1118_ vdd gnd FILL
XFILL_0__829_ vdd gnd FILL
X_1284_ _738_/Y _1310_/CLK _735_/A vdd gnd DFFPOSX1
XFILL_1_BUFX2_insert27 vdd gnd FILL
XFILL_1_BUFX2_insert49 vdd gnd FILL
XFILL_1_CLKBUF1_insert17 vdd gnd FILL
XBUFX2_insert52 _828_/Y _885_/B vdd gnd BUFX2
XBUFX2_insert41 _833_/Y _985_/A vdd gnd BUFX2
XBUFX2_insert30 _642_/Y _794_/B vdd gnd BUFX2
XFILL_0__614_ vdd gnd FILL
X_995_ _995_/A _996_/C vdd gnd INVX1
X_1267_ _602_/Y _599_/CLK _640_/A vdd gnd DFFPOSX1
X_1198_ _1198_/D _1309_/CLK _1198_/Q vdd gnd DFFPOSX1
X_780_ _780_/A _794_/B _819_/C _782_/B vdd gnd AOI21X1
XFILL_1__930_ vdd gnd FILL
X_1052_ _1220_/Q _791_/B _992_/C _1054_/B vdd gnd AOI21X1
X_978_ _983_/A _979_/A _978_/C _983_/C vdd gnd AOI21X1
X_1121_ _938_/A _938_/B _1246_/Q _1122_/B vdd gnd OAI21X1
XFILL_0__1188_ vdd gnd FILL
X_901_ _901_/A _965_/B _901_/C _901_/Y vdd gnd AOI21X1
X_832_ _832_/A _832_/B _833_/A vdd gnd NOR2X1
X_694_ _950_/A _694_/B _694_/C _694_/Y vdd gnd AOI21X1
X_763_ _763_/A _930_/B _763_/C _798_/A vdd gnd OAI21X1
XFILL_0__1042_ vdd gnd FILL
XFILL_0__1111_ vdd gnd FILL
XFILL_1__913_ vdd gnd FILL
X_1035_ _821_/A _1035_/B _1035_/C _1236_/D vdd gnd AOI21X1