* NGSPICE file created from my_mcu_top.ext - technology: scmos

* Black-box entry subcircuit for AOI21X1 abstract view
.subckt AOI21X1 A B C Y vdd gnd
.ends

* Black-box entry subcircuit for INVX1 abstract view
.subckt INVX1 A Y vdd gnd
.ends

* Black-box entry subcircuit for NOR2X1 abstract view
.subckt NOR2X1 A B Y vdd gnd
.ends

* Black-box entry subcircuit for NAND2X1 abstract view
.subckt NAND2X1 A B Y vdd gnd
.ends

* Black-box entry subcircuit for FILL abstract view
.subckt FILL vdd gnd
.ends

* Black-box entry subcircuit for DFFPOSX1 abstract view
.subckt DFFPOSX1 D CLK Q vdd gnd
.ends

* Black-box entry subcircuit for DFFSR abstract view
.subckt DFFSR R S D CLK Q vdd gnd
.ends

* Black-box entry subcircuit for OAI21X1 abstract view
.subckt OAI21X1 A B C Y vdd gnd
.ends

* Black-box entry subcircuit for BUFX2 abstract view
.subckt BUFX2 A Y vdd gnd
.ends

* Black-box entry subcircuit for MUX2X1 abstract view
.subckt MUX2X1 A B S Y vdd gnd
.ends

* Black-box entry subcircuit for OAI22X1 abstract view
.subckt OAI22X1 A B C D Y vdd gnd
.ends

* Black-box entry subcircuit for NAND3X1 abstract view
.subckt NAND3X1 A B C Y vdd gnd
.ends

* Black-box entry subcircuit for INVX2 abstract view
.subckt INVX2 A Y vdd gnd
.ends

* Black-box entry subcircuit for CLKBUF1 abstract view
.subckt CLKBUF1 A Y vdd gnd
.ends

* Black-box entry subcircuit for AND2X2 abstract view
.subckt AND2X2 A B Y vdd gnd
.ends

* Black-box entry subcircuit for OR2X2 abstract view
.subckt OR2X2 A B Y vdd gnd
.ends

* Black-box entry subcircuit for AOI22X1 abstract view
.subckt AOI22X1 A B C D Y vdd gnd
.ends

* Black-box entry subcircuit for INVX8 abstract view
.subckt INVX8 A Y vdd gnd
.ends

.subckt my_mcu_top gnd vdd i_clk_fast i_clk_sys_ext i_rst_n o_rf_sync o_rf_sck o_rf_mosi
+ i_rf_miso o_mem_sync o_mem_sck o_mem_mosi i_mem_miso
X_3086_ _3261_/C _3086_/B _3141_/C _3849_/D vdd gnd AOI21X1
X_3155_ _3487_/C _3157_/B vdd gnd INVX1
X_2106_ _4130_/Q _3742_/B vdd gnd INVX1
X_2037_ _2037_/A _2181_/B _2038_/A vdd gnd NOR2X1
X_2939_ _3927_/Q _2988_/A _2940_/C vdd gnd NAND2X1
XFILL_1__2084_ vdd gnd FILL
XFILL_0__3429_ vdd gnd FILL
X_3988_ _3988_/D _4036_/CLK _3988_/Q vdd gnd DFFPOSX1
XFILL_1__2986_ vdd gnd FILL
XFILL_1__3607_ vdd gnd FILL
XFILL_0__2731_ vdd gnd FILL
X_3842_ _4180_/R vdd _3842_/D _4166_/CLK _3842_/Q vdd gnd DFFSR
XFILL_0__3145_ vdd gnd FILL
X_3911_ _3911_/D _4084_/CLK _3911_/Q vdd gnd DFFPOSX1
X_2724_ _3841_/Q _4052_/Q _2725_/B vdd gnd NOR2X1
XFILL_0__3076_ vdd gnd FILL
X_3773_ _3926_/Y _3811_/Y _3774_/Y _3773_/Y vdd gnd OAI21X1
X_2655_ _2655_/A _2655_/B _4046_/D vdd gnd NOR2X1
X_2586_ _2586_/A _2592_/B _2586_/C _2587_/A vdd gnd OAI21X1
XFILL_0__2929_ vdd gnd FILL
XFILL_1__2771_ vdd gnd FILL
X_3207_ _3457_/B _3351_/B _3277_/A vdd gnd NOR2X1
X_4187_ _4187_/D _3214_/A _4187_/Q vdd gnd DFFPOSX1
X_3069_ _3069_/A _3069_/B _3070_/A vdd gnd NAND2X1
X_3138_ _3828_/Q _3734_/A vdd gnd INVX1
XFILL_1__2969_ vdd gnd FILL
XBUFX2_insert111 _2318_/Y _3364_/A vdd gnd BUFX2
XBUFX2_insert122 _1980_/Y _2152_/B vdd gnd BUFX2
XBUFX2_insert100 _1951_/Y _2158_/S vdd gnd BUFX2
XBUFX2_insert177 _3726_/Y _3750_/S vdd gnd BUFX2
XFILL_0__3901_ vdd gnd FILL
X_2440_ _3924_/Q _2440_/B _2440_/C _2445_/A vdd gnd OAI21X1
X_2371_ _2371_/A _3689_/B _2403_/C vdd gnd NAND2X1
X_4041_ _4041_/D _4049_/CLK _4041_/Q vdd gnd DFFPOSX1
X_4110_ _4110_/D _4114_/CLK _4110_/Q vdd gnd DFFPOSX1
XFILL_0__3763_ vdd gnd FILL
XFILL_0__2645_ vdd gnd FILL
X_3825_ _3825_/D _4147_/CLK _3825_/Q vdd gnd DFFPOSX1
X_3756_ _3756_/A _3756_/B _3760_/S _3939_/D vdd gnd MUX2X1
X_2638_ _2712_/B _3120_/C _3121_/A _4050_/D vdd gnd AOI21X1
XFILL_1__2823_ vdd gnd FILL
X_2569_ _2569_/A _2592_/B _3071_/C _4087_/D vdd gnd AOI21X1
XFILL_0__3059_ vdd gnd FILL
X_2707_ _2707_/A _2780_/B _2707_/C _2708_/A vdd gnd OAI21X1
X_3687_ _3688_/C _3688_/B _3687_/C _3688_/D _3858_/D vdd gnd OAI22X1
XFILL_1__3237_ vdd gnd FILL
XFILL_1__2119_ vdd gnd FILL
XFILL_0__2361_ vdd gnd FILL
XFILL_0__2430_ vdd gnd FILL
XFILL132750x100950 vdd gnd FILL
X_1940_ _4163_/Q _4165_/Q _3696_/B vdd gnd NOR2X1
X_3610_ _3988_/Q _3611_/A _3611_/C vdd gnd NOR2X1
X_2423_ _3462_/C _3464_/B vdd gnd INVX1
X_3541_ _3605_/A _4029_/Q _3541_/C _3543_/B vdd gnd OAI21X1
X_3472_ _3472_/A _3472_/B _3473_/B vdd gnd NOR2X1
X_4024_ _4024_/D _4050_/CLK _4024_/Q vdd gnd DFFPOSX1
X_2354_ _4039_/Q _2677_/B _2355_/C vdd gnd NAND2X1
XFILL_0__3746_ vdd gnd FILL
X_2285_ _4051_/Q _3525_/B _2285_/C _2387_/B vdd gnd OAI21X1
XFILL_0__2559_ vdd gnd FILL
XFILL_0__2628_ vdd gnd FILL
XBUFX2_insert0 _2781_/Y _2827_/B vdd gnd BUFX2
XFILL_1__3022_ vdd gnd FILL
X_3808_ _3851_/Q _3853_/Q _3808_/C _3809_/B vdd gnd NAND3X1
X_3739_ _3739_/A _3739_/B _3816_/S _4197_/D vdd gnd MUX2X1
XFILL_1__2806_ vdd gnd FILL
XFILL_1__2599_ vdd gnd FILL
XFILL_0__1930_ vdd gnd FILL
XFILL_0__3600_ vdd gnd FILL
X_2070_ _4138_/Q _3746_/B vdd gnd INVX1
XFILL_0__3393_ vdd gnd FILL
X_2972_ _2972_/A _2972_/B _2972_/C _2973_/A vdd gnd OAI21X1
XFILL_0__2344_ vdd gnd FILL
XFILL_0__3462_ vdd gnd FILL
XFILL_0__2275_ vdd gnd FILL
X_1923_ _4169_/Q _1926_/B _3773_/Y _1924_/C vdd gnd OAI21X1
X_2406_ _2895_/A _3022_/B vdd gnd INVX2
X_3386_ _4149_/Q _3386_/B _3391_/S _3388_/B vdd gnd MUX2X1
X_3524_ _3524_/A _3525_/B _3525_/C vdd gnd NAND2X1
X_3455_ _3455_/A _3472_/A _3475_/A _4057_/D vdd gnd MUX2X1
X_2337_ _4037_/Q _2530_/A vdd gnd INVX1
X_4007_ _4007_/D _4030_/CLK _4007_/Q vdd gnd DFFPOSX1
X_2268_ _3183_/A _3183_/B _2378_/B vdd gnd NOR2X1
X_2199_ _2199_/A _2650_/B _2200_/A vdd gnd NOR2X1
XFILL131850x64950 vdd gnd FILL
XFILL_0__2060_ vdd gnd FILL
XCLKBUF1_insert147 CLKBUF1_insert191/Y _4135_/CLK vdd gnd CLKBUF1
XFILL_0__2962_ vdd gnd FILL
XCLKBUF1_insert136 CLKBUF1_insert186/Y _4094_/CLK vdd gnd CLKBUF1
X_3240_ _3240_/A _3526_/S _3240_/C _4176_/D vdd gnd AOI21X1
XCLKBUF1_insert158 CLKBUF1_insert186/Y _4119_/CLK vdd gnd CLKBUF1
XCLKBUF1_insert169 CLKBUF1_insert191/Y _4040_/CLK vdd gnd CLKBUF1
X_3171_ _4178_/Q _4192_/Q _4193_/Q _3172_/B vdd gnd OAI21X1
X_2122_ _2122_/A _4126_/Q _2158_/S _2123_/B vdd gnd MUX2X1
X_2053_ _3748_/B _2170_/B _2056_/B vdd gnd NOR2X1
XCLKBUF1_insert62 i_clk_fast _2244_/A vdd gnd CLKBUF1
XFILL_0__3376_ vdd gnd FILL
X_2955_ _3918_/Q _2960_/A _2956_/C vdd gnd NAND2X1
X_2886_ _3948_/Q _2900_/A vdd gnd INVX1
XFILL_0__2258_ vdd gnd FILL
X_3507_ _3507_/A _3525_/B _3511_/A vdd gnd NOR2X1
XFILL_0__2189_ vdd gnd FILL
X_3369_ _3369_/A _3369_/B _3370_/B _3370_/D vdd gnd AOI21X1
X_3438_ _3440_/B _3438_/B _3453_/S _4073_/D vdd gnd MUX2X1
XFILL_1__2436_ vdd gnd FILL
XFILL_1__3554_ vdd gnd FILL
XFILL_0__3230_ vdd gnd FILL
XFILL_0__2112_ vdd gnd FILL
X_2740_ _2898_/C _2741_/D vdd gnd INVX1
XFILL_0__3092_ vdd gnd FILL
X_2671_ _4040_/Q _2764_/B vdd gnd INVX1
XFILL_0__2876_ vdd gnd FILL
XFILL_0__2945_ vdd gnd FILL
X_3223_ _3712_/B _3223_/B _3224_/B vdd gnd NOR2X1
X_3085_ _3085_/A _3310_/B _3261_/C vdd gnd NAND2X1
X_3154_ _3159_/A _3159_/B _3487_/C vdd gnd NOR2X1
X_2105_ _2186_/A _2105_/B _4130_/D vdd gnd NOR2X1
X_2036_ _2180_/A _4000_/Q _2037_/A vdd gnd NAND2X1
X_3987_ _3987_/D _3987_/CLK _3987_/Q vdd gnd DFFPOSX1
XFILL_0__3359_ vdd gnd FILL
X_2938_ _3925_/Q _3922_/Q _2986_/S _2940_/B vdd gnd MUX2X1
X_2869_ _2869_/A _2885_/B _3963_/D vdd gnd AND2X2
XFILL_1__3537_ vdd gnd FILL
XFILL_0__2592_ vdd gnd FILL
XFILL132450x111750 vdd gnd FILL
XFILL_0__2661_ vdd gnd FILL
X_3841_ _3841_/D _4054_/CLK _3841_/Q vdd gnd DFFPOSX1
X_2723_ _3829_/Q _3831_/Q _2725_/A vdd gnd NOR2X1
X_3910_ _3910_/D _4032_/CLK _3910_/Q vdd gnd DFFPOSX1
XFILL_0__3213_ vdd gnd FILL
X_3772_ _3773_/Y _3772_/Y vdd gnd INVX1
X_2585_ _2608_/A _2608_/B _4074_/Q _2586_/C vdd gnd OAI21X1
XFILL_0__2026_ vdd gnd FILL
X_2654_ _2654_/A _4046_/Q _2654_/S _2655_/B vdd gnd MUX2X1
XFILL_0__2859_ vdd gnd FILL
X_3137_ _3825_/Q _3323_/C _3141_/B vdd gnd NAND2X1
X_3206_ _3459_/B _3790_/A _3358_/C _4189_/D vdd gnd MUX2X1
X_4186_ _4201_/R vdd _4186_/D _4197_/CLK _4186_/Q vdd gnd DFFSR
X_3068_ _3859_/Q _3069_/A vdd gnd INVX1
XFILL_1__3184_ vdd gnd FILL
X_2019_ _2019_/A _2163_/B _2020_/A vdd gnd NOR2X1
XFILL_1__2066_ vdd gnd FILL
XBUFX2_insert112 _2318_/Y _3391_/S vdd gnd BUFX2
XBUFX2_insert123 _1980_/Y _2179_/B vdd gnd BUFX2
XBUFX2_insert101 _1951_/Y _2176_/S vdd gnd BUFX2
XBUFX2_insert178 _3726_/Y _3747_/S vdd gnd BUFX2
XFILL_0__2713_ vdd gnd FILL
X_4040_ _4040_/D _4040_/CLK _4040_/Q vdd gnd DFFPOSX1
X_2370_ _2370_/A _2370_/B _2371_/A vdd gnd NAND2X1
XFILL_0__3693_ vdd gnd FILL
XFILL_0__2575_ vdd gnd FILL
XFILL_0__3127_ vdd gnd FILL
X_3824_ _3947_/S vdd _3824_/D _4201_/CLK _3824_/Q vdd gnd DFFSR
X_2706_ _2706_/A _2780_/B vdd gnd INVX1
X_3755_ _3755_/A _3755_/B _3755_/S _3943_/D vdd gnd MUX2X1
X_3686_ _3858_/Q _3688_/C vdd gnd INVX1
X_2637_ _3110_/A _2637_/B _2637_/C _3120_/C vdd gnd NAND3X1
X_2499_ _4091_/Q _2562_/C vdd gnd INVX1
X_2568_ _2568_/A _2584_/A _4087_/Q _2569_/A vdd gnd OAI21X1
XFILL_1__2753_ vdd gnd FILL
XFILL_0__2009_ vdd gnd FILL
XFILL_1_BUFX2_insert109 vdd gnd FILL
X_4169_ _4169_/D _4183_/CLK _4169_/Q vdd gnd DFFPOSX1
XFILL_1__3167_ vdd gnd FILL
XFILL_1__2049_ vdd gnd FILL
XFILL_0__2291_ vdd gnd FILL
X_3540_ _3605_/A _3738_/B _3541_/C vdd gnd NAND2X1
X_2353_ _2353_/A _2353_/B _2677_/B vdd gnd NAND2X1
X_3471_ _3471_/A _3471_/B _3475_/A _4055_/D vdd gnd AOI21X1
X_2422_ _2422_/A _3169_/B _3170_/A _2434_/C vdd gnd NAND3X1
XFILL_0__3814_ vdd gnd FILL
XFILL_0__2627_ vdd gnd FILL
XBUFX2_insert1 _2781_/Y _2903_/A vdd gnd BUFX2
X_2284_ _3487_/B _3488_/A _2399_/A _2285_/C vdd gnd NAND3X1
X_4023_ _4023_/D _4034_/CLK _4023_/Q vdd gnd DFFPOSX1
XFILL_0__3676_ vdd gnd FILL
XFILL_0__2489_ vdd gnd FILL
X_3807_ _3807_/A _3807_/B _3808_/C vdd gnd NOR2X1
X_3738_ _3738_/A _3738_/B _3750_/S _4201_/D vdd gnd MUX2X1
X_1999_ _3755_/B _2179_/B _2002_/B vdd gnd NOR2X1
X_3669_ _3895_/Q _3672_/C vdd gnd INVX1
XFILL132450x21750 vdd gnd FILL
XFILL_0__3530_ vdd gnd FILL
X_2971_ _3910_/Q _2972_/A _2972_/C vdd gnd NAND2X1
XFILL_0__2412_ vdd gnd FILL
X_1922_ _3715_/B _3763_/Y _1926_/B vdd gnd NAND2X1
X_3523_ _4038_/Q _3626_/B _3527_/C vdd gnd NAND2X1
X_2336_ _2336_/A _2336_/B _2493_/C _2342_/C vdd gnd OAI21X1
X_2405_ _3944_/Q _2428_/A vdd gnd INVX1
X_3385_ _3385_/A _3385_/B _3385_/C _4125_/D vdd gnd OAI21X1
XFILL_0__1989_ vdd gnd FILL
X_3454_ _4053_/Q _3472_/A vdd gnd INVX1
XFILL_1__2383_ vdd gnd FILL
X_2267_ _4199_/Q _3818_/Q _3817_/Q _3183_/B vdd gnd NAND3X1
XFILL_0__3728_ vdd gnd FILL
X_2198_ _2649_/A _4043_/Q _2199_/A vdd gnd NAND2X1
X_4006_ _4006_/D _4036_/CLK _4006_/Q vdd gnd DFFPOSX1
XFILL_1__3004_ vdd gnd FILL
XFILL_1_CLKBUF1_insert127 vdd gnd FILL
XFILL_1_CLKBUF1_insert149 vdd gnd FILL
XFILL132150x68550 vdd gnd FILL
XFILL_0__2892_ vdd gnd FILL
XFILL_0__1912_ vdd gnd FILL
X_3170_ _3170_/A _3170_/B _3693_/B vdd gnd AND2X2
XCLKBUF1_insert159 CLKBUF1_insert191/Y _4200_/CLK vdd gnd CLKBUF1
XCLKBUF1_insert137 CLKBUF1_insert186/Y _4100_/CLK vdd gnd CLKBUF1
XCLKBUF1_insert148 CLKBUF1_insert186/Y _3961_/CLK vdd gnd CLKBUF1
XFILL132150x122550 vdd gnd FILL
X_2052_ _4142_/Q _3748_/B vdd gnd INVX1
X_2121_ _2157_/A _2121_/B _2121_/C _2122_/A vdd gnd OAI21X1
XFILL_0__3444_ vdd gnd FILL
XFILL_0__3513_ vdd gnd FILL
X_2885_ _2885_/A _2885_/B _3954_/D vdd gnd AND2X2
XFILL_0__2326_ vdd gnd FILL
X_2954_ _3916_/Q _3914_/Q _2986_/S _2956_/B vdd gnd MUX2X1
XFILL_0__2257_ vdd gnd FILL
XCLKBUF1_insert63 i_clk_fast _3214_/A vdd gnd CLKBUF1
X_3506_ _3507_/A _3506_/B _3626_/B _4045_/D vdd gnd MUX2X1
XFILL_1__1952_ vdd gnd FILL
X_2319_ _4015_/Q _3152_/A _3358_/C _2685_/S vdd gnd NAND3X1
X_3368_ _4179_/Q _4141_/Q _3368_/C _3370_/C vdd gnd OAI21X1
X_3299_ _3834_/Q _3731_/A vdd gnd INVX1
X_3437_ _4073_/Q _3440_/B vdd gnd INVX1
XFILL_1__2366_ vdd gnd FILL
XFILL_1__3484_ vdd gnd FILL
XFILL132150x43350 vdd gnd FILL
XFILL132750x90150 vdd gnd FILL
XFILL_0__3160_ vdd gnd FILL
X_2670_ _4015_/Q _2764_/A vdd gnd INVX1
XFILL_0__2042_ vdd gnd FILL
XFILL_0__2944_ vdd gnd FILL
X_3153_ _4199_/Q _3159_/A vdd gnd INVX1
X_2104_ _2104_/A _4130_/Q _2158_/S _2105_/B vdd gnd MUX2X1
X_3222_ _3222_/A _3227_/B vdd gnd INVX1
X_3084_ _3742_/A _3742_/B _3390_/S _3085_/A vdd gnd MUX2X1
XFILL_0__3427_ vdd gnd FILL
X_2035_ _3750_/B _2188_/B _2038_/B vdd gnd NOR2X1
XFILL_1__2220_ vdd gnd FILL
X_2868_ _2880_/A _2868_/B _2868_/C _2869_/A vdd gnd OAI21X1
XFILL_0__3358_ vdd gnd FILL
X_2937_ _2937_/A _3976_/R _3929_/D vdd gnd AND2X2
X_3986_ _3986_/D _4121_/D _3986_/Q vdd gnd DFFPOSX1
X_2799_ _3997_/Q _2903_/A _2800_/C vdd gnd NAND2X1
XFILL_1__2418_ vdd gnd FILL
X_2722_ _3825_/Q _3827_/Q _2726_/C vdd gnd NOR2X1
XFILL_0__3074_ vdd gnd FILL
X_3840_ _4180_/R vdd _3840_/D _4193_/CLK _3840_/Q vdd gnd DFFSR
XFILL_0__3143_ vdd gnd FILL
X_3771_ _3771_/A _3772_/Y _3771_/Y vdd gnd NOR2X1
X_2584_ _2584_/A _2584_/B _4076_/D vdd gnd NOR2X1
XFILL_0__2927_ vdd gnd FILL
X_2653_ _2653_/A _2653_/B _2653_/C _2654_/A vdd gnd OAI21X1
X_4185_ _4185_/D _3214_/A _4185_/Q vdd gnd DFFPOSX1
X_3136_ _3136_/A _3136_/B _3827_/D vdd gnd AND2X2
XFILL_1__3321_ vdd gnd FILL
X_3067_ _3861_/Q _3067_/B _3859_/Q _3070_/B vdd gnd OAI21X1
X_3205_ _3943_/Q _4155_/Q _3286_/A _3790_/A vdd gnd MUX2X1
X_2018_ _2171_/A _3996_/Q _2019_/A vdd gnd NAND2X1
XFILL_1__2203_ vdd gnd FILL
X_3969_ _3969_/D _3977_/CLK _3969_/Q vdd gnd DFFPOSX1
XFILL_1__2898_ vdd gnd FILL
XFILL_1__3519_ vdd gnd FILL
XBUFX2_insert113 _2318_/Y _3323_/C vdd gnd BUFX2
XBUFX2_insert179 _3726_/Y _3816_/S vdd gnd BUFX2
XBUFX2_insert124 _1980_/Y _2188_/B vdd gnd BUFX2
XBUFX2_insert102 _1951_/Y _2131_/S vdd gnd BUFX2
XFILL_0__3761_ vdd gnd FILL
XFILL_0__2643_ vdd gnd FILL
XFILL_0__2574_ vdd gnd FILL
X_3823_ _3823_/D _3806_/A _3823_/Q vdd gnd DFFPOSX1
X_2636_ _3038_/A _2637_/C vdd gnd INVX1
XFILL_0__3057_ vdd gnd FILL
X_2705_ _3022_/B _2705_/B _2769_/A _2706_/A vdd gnd OAI21X1
X_3754_ _3943_/Q _3755_/A vdd gnd INVX1
X_3685_ _3687_/C _3688_/B _3685_/C _3688_/D _3862_/D vdd gnd OAI22X1
X_2567_ _2573_/A _4081_/Q _2568_/A vdd gnd OR2X2
X_2498_ _2498_/A _2498_/B _2498_/C _2498_/Y vdd gnd AOI21X1
XFILL_1__2683_ vdd gnd FILL
X_3119_ _3121_/A _3119_/B _3835_/D vdd gnd NOR2X1
X_4168_ _4168_/D _4172_/CLK _4168_/Q vdd gnd DFFPOSX1
X_4099_ _4099_/D _4148_/CLK _4099_/Q vdd gnd DFFPOSX1
X_2352_ _3855_/Q _4042_/Q _2353_/B vdd gnd NOR2X1
X_2421_ _2421_/A _2421_/B _2421_/C _3169_/B vdd gnd OAI21X1
X_3470_ _3470_/A _3470_/B _3471_/B vdd gnd NAND2X1
XFILL_0__3744_ vdd gnd FILL
X_2283_ _2283_/A _2283_/B _2399_/A vdd gnd NAND2X1
X_4022_ _4022_/D _4050_/CLK _4022_/Q vdd gnd DFFPOSX1
XFILL_0__2557_ vdd gnd FILL
XBUFX2_insert2 _2781_/Y _2843_/B vdd gnd BUFX2
XFILL_0__3675_ vdd gnd FILL
X_3806_ _3806_/A _3806_/Y vdd gnd INVX1
X_2619_ _3136_/B _3048_/B _3121_/A vdd gnd NAND2X1
X_3737_ _3737_/A _3737_/B _3747_/S _3822_/D vdd gnd MUX2X1
X_3599_ _3599_/A _3599_/B _3599_/C _3994_/D vdd gnd AOI21X1
X_3668_ _3670_/C _3683_/B _3668_/C _3683_/D _3899_/D vdd gnd OAI22X1
X_1998_ _4155_/Q _3755_/B vdd gnd INVX1
XFILL_1__2735_ vdd gnd FILL
XFILL_1_BUFX2_insert83 vdd gnd FILL
XFILL_1_BUFX2_insert61 vdd gnd FILL
XFILL_1__3149_ vdd gnd FILL
XFILL_0__3391_ vdd gnd FILL
XFILL_0__3460_ vdd gnd FILL
XFILL_0__2342_ vdd gnd FILL
X_2970_ _3908_/Q _3906_/Q _2986_/S _2972_/B vdd gnd MUX2X1
XFILL_0__2273_ vdd gnd FILL
X_1921_ _1921_/A _1921_/B _3771_/A _4171_/D vdd gnd AOI21X1
X_3522_ _3525_/A _3522_/B _3522_/C _3522_/D _4041_/D vdd gnd OAI22X1
X_3453_ _3453_/A _3455_/A _3453_/S _4059_/D vdd gnd MUX2X1
X_2335_ _2494_/A _2602_/A _2563_/B _2606_/A _2336_/B vdd gnd OAI22X1
XFILL_1__2520_ vdd gnd FILL
X_3384_ _3384_/A _3385_/B _3385_/C vdd gnd NAND2X1
X_2404_ _3689_/A _3460_/B _2404_/C _3144_/A vdd gnd NAND3X1
X_2266_ _4200_/Q _3183_/A vdd gnd INVX2
X_4005_ _4005_/D _4147_/CLK _4005_/Q vdd gnd DFFPOSX1
XFILL_0__3658_ vdd gnd FILL
X_2197_ _3732_/B _2648_/B _2200_/B vdd gnd NOR2X1
XFILL_1__2718_ vdd gnd FILL
XFILL_0__2960_ vdd gnd FILL
XFILL_0__2891_ vdd gnd FILL
XCLKBUF1_insert127 CLKBUF1_insert189/Y _3908_/CLK vdd gnd CLKBUF1
XCLKBUF1_insert149 CLKBUF1_insert190/Y _4032_/CLK vdd gnd CLKBUF1
XCLKBUF1_insert138 CLKBUF1_insert188/Y _4182_/CLK vdd gnd CLKBUF1
X_2120_ _4096_/Q _3941_/Q _2120_/S _2121_/B vdd gnd MUX2X1
XFILL_0__3374_ vdd gnd FILL
XFILL_0__3512_ vdd gnd FILL
X_2051_ _2177_/A _2051_/B _4142_/D vdd gnd NOR2X1
X_2884_ _2900_/B _2884_/B _2884_/C _2885_/A vdd gnd OAI21X1
X_2953_ _2953_/A _4197_/R _3920_/D vdd gnd AND2X2
XFILL_0__2187_ vdd gnd FILL
XCLKBUF1_insert64 i_clk_fast _4148_/CLK vdd gnd CLKBUF1
X_3505_ _3625_/A _3505_/B _3505_/C _3506_/B vdd gnd OAI21X1
X_3436_ _3438_/B _3436_/B _3453_/S _4075_/D vdd gnd MUX2X1
X_2249_ _4076_/Q _4079_/Q _2250_/B vdd gnd NOR2X1
X_3367_ _4179_/Q _3802_/B _3373_/D _3368_/C vdd gnd OAI21X1
X_2318_ _3724_/B _2318_/B _3810_/B _2318_/Y vdd gnd NAND3X1
X_3298_ _3385_/B _3298_/B _3298_/C _4153_/D vdd gnd AOI21X1
XFILL_0__3090_ vdd gnd FILL
XFILL_0__2110_ vdd gnd FILL
XFILL132750x108150 vdd gnd FILL
XFILL_0__2874_ vdd gnd FILL
X_3083_ _4184_/Q _3742_/A vdd gnd INVX1
X_3152_ _3152_/A _3152_/B _3926_/A _3819_/D vdd gnd AOI21X1
X_2103_ _2157_/A _2103_/B _2103_/C _2104_/A vdd gnd OAI21X1
X_3221_ _3239_/A _3773_/Y _3770_/Y _3221_/D _4183_/D vdd gnd AOI22X1
X_3985_ _3985_/D _3985_/CLK _3985_/Q vdd gnd DFFPOSX1
XFILL_0__2308_ vdd gnd FILL
XFILL_1__2150_ vdd gnd FILL
X_2034_ _4146_/Q _3750_/B vdd gnd INVX1
X_2867_ _3963_/Q _2880_/A _2868_/C vdd gnd NAND2X1
X_2798_ _3995_/Q _3993_/Q _2895_/A _2800_/B vdd gnd MUX2X1
X_2936_ _2988_/A _2936_/B _2936_/C _2937_/A vdd gnd OAI21X1
XFILL_0__3288_ vdd gnd FILL
X_3419_ _4094_/Q _3422_/B vdd gnd INVX1
XFILL_1__1934_ vdd gnd FILL
XFILL_1__3466_ vdd gnd FILL
XFILL_1__2348_ vdd gnd FILL
XFILL_0__2590_ vdd gnd FILL
XFILL_0__3211_ vdd gnd FILL
X_2721_ _2721_/A _2721_/B _2726_/A vdd gnd AND2X2
X_3770_ _3771_/Y _3770_/Y vdd gnd INVX1
XFILL_0__2024_ vdd gnd FILL
XFILL_0__3142_ vdd gnd FILL
X_2652_ _4053_/Q _3823_/Q _2652_/S _2653_/B vdd gnd MUX2X1
X_2583_ _2758_/A _2583_/B _2584_/B vdd gnd NAND2X1
X_3204_ _3905_/Y _3795_/A _3382_/B _4190_/D vdd gnd MUX2X1
XFILL_0__2857_ vdd gnd FILL
X_3135_ _3135_/A _3369_/A _3321_/C _3136_/A vdd gnd OAI21X1
XFILL_0__2788_ vdd gnd FILL
X_3066_ _3152_/A _3066_/B _3071_/C _3861_/D vdd gnd AOI21X1
X_4184_ _4197_/R vdd _4184_/D _4184_/CLK _4184_/Q vdd gnd DFFSR
X_2017_ _3752_/B _2170_/B _2020_/B vdd gnd NOR2X1
X_2919_ _3938_/Q _3008_/A _2920_/C vdd gnd NAND2X1
X_3968_ _4201_/R vdd _3968_/D _4121_/D _3968_/Q vdd gnd DFFSR
XFILL_0__3409_ vdd gnd FILL
X_3899_ _3899_/D _4119_/CLK _3899_/Q vdd gnd DFFPOSX1
XFILL_1__3449_ vdd gnd FILL
XBUFX2_insert114 _2318_/Y _3382_/B vdd gnd BUFX2
XBUFX2_insert125 _1980_/Y _2648_/B vdd gnd BUFX2
XBUFX2_insert103 _1951_/Y _2185_/S vdd gnd BUFX2
XFILL_0__2711_ vdd gnd FILL
XFILL_0__3691_ vdd gnd FILL
XFILL_0__3125_ vdd gnd FILL
X_3822_ _4201_/R vdd _3822_/D _4182_/CLK _3822_/Q vdd gnd DFFSR
X_2635_ _3833_/Q _3035_/B _3038_/A vdd gnd NAND2X1
X_2704_ _2774_/B _2769_/A vdd gnd INVX1
X_3753_ _3753_/A _3753_/B _3760_/S _3947_/D vdd gnd MUX2X1
XFILL_0__2007_ vdd gnd FILL
X_3684_ _3862_/Q _3687_/C vdd gnd INVX1
X_2497_ _2497_/A _2497_/B _2498_/A vdd gnd NAND2X1
X_2566_ _2608_/B _2581_/B _2584_/A vdd gnd NOR2X1
XFILL_0__2909_ vdd gnd FILL
X_4167_ _4167_/D _4183_/CLK _4167_/Q vdd gnd DFFPOSX1
X_3118_ _3118_/A _3118_/B _3119_/B vdd gnd NAND2X1
X_3049_ _3870_/Q _3049_/B _3136_/B _3050_/C vdd gnd OAI21X1
XFILL_1__3303_ vdd gnd FILL
X_4098_ _4098_/D _4100_/CLK _4098_/Q vdd gnd DFFPOSX1
XFILL_1__3096_ vdd gnd FILL
X_2420_ _2420_/A _2420_/B _3170_/A vdd gnd NAND2X1
X_2351_ _3851_/Q _3853_/Q _2353_/A vdd gnd NOR2X1
XFILL_0__3812_ vdd gnd FILL
X_4021_ _4021_/D _4034_/CLK _4021_/Q vdd gnd DFFPOSX1
X_2282_ _3504_/B _4049_/Q _3503_/A _2283_/B vdd gnd NAND3X1
XBUFX2_insert3 _2781_/Y _2900_/B vdd gnd BUFX2
XFILL_0__2487_ vdd gnd FILL
XFILL_0__2625_ vdd gnd FILL
XFILL_0__3108_ vdd gnd FILL
X_3736_ _3736_/A _3736_/B _3816_/S _3824_/D vdd gnd MUX2X1
X_1997_ _2177_/A _1997_/B _4155_/D vdd gnd NOR2X1
X_3805_ _4121_/Q _3806_/Y _3805_/Y vdd gnd NOR2X1
X_2549_ _2549_/A _2549_/B _2550_/B vdd gnd NAND2X1
XFILL_0__3039_ vdd gnd FILL
X_2618_ _4054_/Q _3103_/B _3058_/B _3048_/B vdd gnd NAND3X1
XFILL_1__3783_ vdd gnd FILL
X_3598_ _3994_/Q _3599_/A _3599_/C vdd gnd NOR2X1
X_3667_ _3899_/Q _3670_/C vdd gnd INVX1
XFILL132150x28950 vdd gnd FILL
XFILL_1__2665_ vdd gnd FILL
XFILL132750x75750 vdd gnd FILL
XFILL_1__3079_ vdd gnd FILL
XFILL_0__2341_ vdd gnd FILL
XFILL_0__2410_ vdd gnd FILL
X_1920_ _3763_/Y _3715_/B _3772_/Y _1921_/A vdd gnd AOI21X1
X_3383_ _3383_/A _3383_/B _3384_/A vdd gnd NAND2X1
X_2403_ _2403_/A _2403_/B _2403_/C _2404_/C vdd gnd OAI21X1
X_3521_ _3526_/S _4109_/Q _3522_/B _3522_/D vdd gnd OAI21X1
X_3452_ _4057_/Q _3455_/A vdd gnd INVX1
X_2334_ _4019_/Q _2516_/B _2685_/S _2517_/A _2606_/A vdd gnd AOI22X1
XFILL_0__3726_ vdd gnd FILL
X_2265_ _2265_/A _4190_/Q _4196_/Q _3466_/C vdd gnd AOI21X1
X_4004_ _4004_/D _4027_/CLK _4004_/Q vdd gnd DFFPOSX1
XFILL_0__1987_ vdd gnd FILL
X_2196_ _4109_/Q _3732_/B vdd gnd INVX1
XFILL_0__2539_ vdd gnd FILL
XFILL_0__2608_ vdd gnd FILL
XFILL_0__3588_ vdd gnd FILL
XFILL132750x50550 vdd gnd FILL
X_3719_ _3719_/A _3719_/B _3719_/C _3719_/Y vdd gnd AOI21X1
XFILL_1__3766_ vdd gnd FILL
XCLKBUF1_insert139 CLKBUF1_insert187/Y _4172_/CLK vdd gnd CLKBUF1
XCLKBUF1_insert128 CLKBUF1_insert188/Y _4196_/CLK vdd gnd CLKBUF1
X_2050_ _2050_/A _4142_/Q _2176_/S _2051_/B vdd gnd MUX2X1
XFILL_0__2324_ vdd gnd FILL
X_2952_ _2960_/A _2952_/B _2952_/C _2953_/A vdd gnd OAI21X1
XFILL_0__3442_ vdd gnd FILL
X_2883_ _3954_/Q _2900_/B _2884_/C vdd gnd NAND2X1
XFILL_0__2255_ vdd gnd FILL
XCLKBUF1_insert65 i_clk_fast _4146_/CLK vdd gnd CLKBUF1
X_3366_ _4131_/Q _3378_/B _3382_/B _3373_/D vdd gnd NAND3X1
X_3504_ _3504_/A _3504_/B _3525_/B _3505_/B vdd gnd MUX2X1
X_3435_ _4075_/Q _3438_/B vdd gnd INVX1
XFILL_1__3620_ vdd gnd FILL
X_2248_ _4079_/Q _2482_/B _2252_/A vdd gnd NOR2X1
XFILL_1__2502_ vdd gnd FILL
X_2317_ _3228_/B _3812_/A _2318_/B vdd gnd NAND2X1
X_3297_ _4153_/Q _3385_/B _3298_/C vdd gnd NOR2X1
X_2179_ _3734_/B _2179_/B _2182_/B vdd gnd NOR2X1
XFILL_1__2295_ vdd gnd FILL
XFILL132450x97350 vdd gnd FILL
XFILL_0__2040_ vdd gnd FILL
XFILL_0__2942_ vdd gnd FILL
X_3220_ _4183_/Q _3239_/A vdd gnd INVX1
X_3082_ _3849_/Q _3344_/C _3086_/B vdd gnd NAND2X1
X_3151_ _3151_/A _4199_/Q _4031_/Q _3152_/B vdd gnd AOI21X1
X_2102_ _4090_/Q _3933_/Q _2120_/S _2103_/B vdd gnd MUX2X1
X_2033_ _2186_/A _2033_/B _4146_/D vdd gnd NOR2X1
X_2935_ _3929_/Q _2988_/A _2936_/C vdd gnd NAND2X1
XFILL_0__3356_ vdd gnd FILL
XFILL_0__3425_ vdd gnd FILL
X_3984_ _3984_/D _4182_/CLK _3984_/Q vdd gnd DFFPOSX1
X_2866_ _3960_/Q _3958_/Q _2878_/S _2868_/B vdd gnd MUX2X1
X_2797_ _2797_/A _3136_/B _3999_/D vdd gnd AND2X2
XFILL_1__2982_ vdd gnd FILL
XFILL_0__2169_ vdd gnd FILL
XFILL_0__2238_ vdd gnd FILL
XFILL_1_BUFX2_insert3 vdd gnd FILL
X_3349_ _3350_/B _3749_/A _3350_/C vdd gnd NAND2X1
XFILL_1__3603_ vdd gnd FILL
X_3418_ _3420_/B _3418_/B _3430_/S _4096_/D vdd gnd MUX2X1
XFILL132450x72150 vdd gnd FILL
XFILL_1__3396_ vdd gnd FILL
X_2582_ _3071_/C _2582_/B _4079_/D vdd gnd NOR2X1
X_2720_ _3849_/Q _4044_/Q _2721_/B vdd gnd NOR2X1
XFILL_0__3072_ vdd gnd FILL
X_2651_ _2651_/A _2651_/B _2653_/A _2653_/C vdd gnd OAI21X1
XFILL_0__2856_ vdd gnd FILL
XFILL_0__2925_ vdd gnd FILL
X_3203_ _4152_/Q _3235_/B _3203_/C _3795_/A vdd gnd OAI21X1
X_4183_ _4183_/D _4183_/CLK _4183_/Q vdd gnd DFFPOSX1
X_3134_ _3134_/A _3369_/A _3321_/C vdd gnd NAND2X1
X_3065_ _3065_/A _3069_/B _3066_/B vdd gnd NOR2X1
XFILL_1__3250_ vdd gnd FILL
X_2016_ _4150_/Q _3752_/B vdd gnd INVX1
X_3967_ _3967_/D _3987_/CLK _3967_/Q vdd gnd DFFPOSX1
X_3898_ _3898_/D _3908_/CLK _3898_/Q vdd gnd DFFPOSX1
XFILL_0__3339_ vdd gnd FILL
X_2918_ _3936_/Q _3934_/Q _3006_/S _2920_/B vdd gnd MUX2X1
XFILL_1__2132_ vdd gnd FILL
X_2849_ _2849_/A _2885_/B _3973_/D vdd gnd AND2X2
XFILL_1__1916_ vdd gnd FILL
XBUFX2_insert115 _2318_/Y _3344_/C vdd gnd BUFX2
XBUFX2_insert104 _1960_/Y _2227_/C vdd gnd BUFX2
XBUFX2_insert126 _1980_/Y _2170_/B vdd gnd BUFX2
XFILL_0__2572_ vdd gnd FILL
XFILL_0__2641_ vdd gnd FILL
X_3821_ _3821_/D _4199_/CLK _3917_/A vdd gnd DFFPOSX1
X_3752_ _3752_/A _3752_/B _3760_/S _3951_/D vdd gnd MUX2X1
X_2565_ _2571_/A _2565_/B _2565_/C _4089_/D vdd gnd AOI21X1
X_2634_ _4050_/Q _3103_/B _2634_/Y vdd gnd NOR2X1
XFILL_0__3055_ vdd gnd FILL
X_2703_ _2950_/S _4031_/Q _2774_/B vdd gnd NOR2X1
X_3683_ _3683_/A _3683_/B _3688_/A _3683_/D _3867_/D vdd gnd OAI22X1
XFILL_0__2006_ vdd gnd FILL
X_3117_ _3117_/A _3117_/B _3117_/C _3118_/A vdd gnd OAI21X1
XFILL_0__2839_ vdd gnd FILL
X_2496_ _2496_/A _2496_/B _2583_/B _2497_/A vdd gnd AOI21X1
X_4166_ _4166_/D _4166_/CLK _4166_/Q vdd gnd DFFPOSX1
X_3048_ _3048_/A _3048_/B _3050_/A vdd gnd NAND2X1
XFILL_1__3233_ vdd gnd FILL
X_4097_ _4097_/D _3214_/A _4097_/Q vdd gnd DFFPOSX1
XFILL_1__2115_ vdd gnd FILL
X_4020_ _4020_/D _4135_/CLK _4020_/Q vdd gnd DFFPOSX1
X_2350_ _4014_/Q _2764_/C vdd gnd INVX1
XFILL_0__3742_ vdd gnd FILL
XFILL_0__3673_ vdd gnd FILL
X_2281_ _3493_/B _3503_/A vdd gnd INVX1
XBUFX2_insert4 _2781_/Y _2796_/A vdd gnd BUFX2
XFILL_0__2555_ vdd gnd FILL
XFILL_0__2486_ vdd gnd FILL
XFILL_0__3107_ vdd gnd FILL
X_3735_ _3735_/A _3735_/B _3816_/S _3826_/D vdd gnd MUX2X1
X_1996_ _1996_/A _4155_/Q _2131_/S _1997_/B vdd gnd MUX2X1
X_3804_ _4202_/Q _3804_/Y vdd gnd INVX1
X_2548_ _4060_/Q _2548_/B _2548_/C _2549_/B vdd gnd NAND3X1
X_2617_ _4035_/Q _3073_/S _3058_/B vdd gnd NOR2X1
X_3597_ _3597_/A _3996_/Q _3597_/C _3599_/B vdd gnd OAI21X1
X_3666_ _3668_/C _3688_/B _3666_/C _3688_/D _3903_/D vdd gnd OAI22X1
X_2479_ _2479_/A _2479_/B _2479_/C _2497_/B vdd gnd OAI21X1
X_4149_ _4149_/D _4173_/CLK _4149_/Q vdd gnd DFFPOSX1
XFILL_1_BUFX2_insert30 vdd gnd FILL
XFILL_1_BUFX2_insert52 vdd gnd FILL
XFILL_1_BUFX2_insert74 vdd gnd FILL
XFILL_1_BUFX2_insert96 vdd gnd FILL
XFILL_0__2271_ vdd gnd FILL
X_3520_ _3525_/B _3520_/B _3520_/C _3522_/C vdd gnd AOI21X1
X_2333_ _2546_/B _3336_/A _2517_/A vdd gnd NOR2X1
X_3382_ _3382_/A _3382_/B _3383_/A vdd gnd NAND2X1
X_2402_ _4190_/Q _2402_/B _2433_/C _4061_/Q _2403_/B vdd gnd AOI22X1
X_3451_ _3704_/B _3709_/B _3469_/B _4061_/D vdd gnd MUX2X1
X_4003_ _4003_/D _4003_/CLK _4003_/Q vdd gnd DFFPOSX1
X_2264_ _2264_/A _2346_/A _2347_/C _2265_/A vdd gnd NAND3X1
XFILL_0__3656_ vdd gnd FILL
X_2195_ _2655_/A _2195_/B _4109_/D vdd gnd NOR2X1
XFILL_0__3587_ vdd gnd FILL
XFILL_0__2469_ vdd gnd FILL
X_3649_ _3937_/Q _3652_/C vdd gnd INVX1
X_3718_ _3718_/A _3718_/B _4185_/Q _3719_/C vdd gnd OAI21X1
X_1979_ _4159_/Q _3758_/B vdd gnd INVX1
XFILL_1__2647_ vdd gnd FILL
XCLKBUF1_insert129 CLKBUF1_insert189/Y _3987_/CLK vdd gnd CLKBUF1
XFILL_0__3510_ vdd gnd FILL
XFILL_0__2323_ vdd gnd FILL
XFILL132750x111750 vdd gnd FILL
XFILL_0__3372_ vdd gnd FILL
X_2951_ _3920_/Q _2960_/A _2952_/C vdd gnd NAND2X1
X_2882_ _3952_/Q _3950_/Q _2895_/A _2884_/B vdd gnd MUX2X1
XCLKBUF1_insert66 i_clk_fast _4089_/CLK vdd gnd CLKBUF1
X_3503_ _3503_/A _3503_/B _3504_/A vdd gnd NOR2X1
XFILL_0__2185_ vdd gnd FILL
X_3365_ _4129_/Q _3370_/A vdd gnd INVX1
X_3296_ _4156_/Q _3309_/B _3296_/C _3298_/B vdd gnd OAI21X1
X_2316_ _3390_/S _3812_/A vdd gnd INVX1
XFILL_1__3550_ vdd gnd FILL
X_3434_ _3436_/B _3434_/B _3453_/S _4077_/D vdd gnd MUX2X1
XFILL_0__1969_ vdd gnd FILL
X_2247_ _2579_/A _2482_/B vdd gnd INVX1
XFILL_1__2432_ vdd gnd FILL
X_2178_ _4113_/Q _3734_/B vdd gnd INVX1
XFILL_0__3708_ vdd gnd FILL
XFILL_1__3748_ vdd gnd FILL
XFILL_0__2872_ vdd gnd FILL
X_3150_ _3901_/A _3921_/A _3820_/D vdd gnd AND2X2
X_3081_ _3081_/A _3081_/B _3081_/C _3851_/D vdd gnd AOI21X1
XFILL_0__3424_ vdd gnd FILL
X_2101_ _2101_/A _2101_/B _2175_/A _2103_/C vdd gnd OAI21X1
X_2032_ _2032_/A _4146_/Q _2185_/S _2033_/B vdd gnd MUX2X1
X_2865_ _2865_/A _2885_/B _3965_/D vdd gnd AND2X2
X_3983_ _3983_/D _3985_/CLK _3983_/Q vdd gnd DFFPOSX1
XFILL_0__2306_ vdd gnd FILL
X_2934_ _3927_/Q _3925_/Q _2986_/S _2936_/B vdd gnd MUX2X1
XFILL_0__3286_ vdd gnd FILL
X_2796_ _2796_/A _2796_/B _2796_/C _2797_/A vdd gnd OAI21X1
XFILL_0__2099_ vdd gnd FILL
X_3348_ _3964_/Q _3749_/A vdd gnd INVX1
X_3279_ _3286_/A _3728_/A _3280_/C vdd gnd NAND2X1
X_3417_ _4096_/Q _3420_/B vdd gnd INVX1
XFILL_1__2277_ vdd gnd FILL
XFILL_0__3140_ vdd gnd FILL
X_2581_ _2608_/B _2581_/B _2581_/C _2582_/B vdd gnd OAI21X1
XFILL_0__2022_ vdd gnd FILL
X_2650_ _2650_/A _2650_/B _2651_/A vdd gnd NOR2X1
XFILL_0__2786_ vdd gnd FILL
X_3133_ _3735_/A _3735_/B _3390_/S _3134_/A vdd gnd MUX2X1
X_4182_ _4201_/R vdd _4182_/D _4182_/CLK _4182_/Q vdd gnd DFFSR
X_3202_ _3235_/B _3753_/A _3203_/C vdd gnd NAND2X1
X_3064_ _3861_/Q _3067_/B _3069_/B vdd gnd NOR2X1
XFILL_1__3180_ vdd gnd FILL
XFILL_0__3407_ vdd gnd FILL
X_2015_ _2177_/A _2015_/B _4150_/D vdd gnd NOR2X1
X_2848_ _2864_/A _2848_/B _2848_/C _2849_/A vdd gnd OAI21X1
X_2917_ _2917_/A _3976_/R _3940_/D vdd gnd AND2X2
X_3897_ _3897_/A _3901_/Y _3897_/Y vdd gnd OR2X2
X_3966_ _3966_/D _4071_/CLK _3966_/Q vdd gnd DFFPOSX1
XFILL_1__2062_ vdd gnd FILL
XFILL_1__2964_ vdd gnd FILL
X_2779_ _3947_/S _2779_/B _2780_/A vdd gnd NAND2X1
XBUFX2_insert116 _2318_/Y _3358_/C vdd gnd BUFX2
XFILL_1__3378_ vdd gnd FILL
XBUFX2_insert105 _1960_/Y _2182_/C vdd gnd BUFX2
XFILL131850x50550 vdd gnd FILL
XFILL_0__2640_ vdd gnd FILL
XFILL_0__3054_ vdd gnd FILL
X_3820_ _3820_/D _4199_/CLK _3921_/B vdd gnd DFFPOSX1
X_2702_ _2707_/A _2950_/S _2705_/B _2707_/C vdd gnd NAND3X1
XFILL_0__3123_ vdd gnd FILL
X_3751_ _3751_/A _3751_/B _3755_/S _3955_/D vdd gnd MUX2X1
X_3682_ _3931_/Q _3688_/A vdd gnd INVX1
X_2564_ _4089_/Q _2565_/B _2758_/A _2565_/C vdd gnd OAI21X1
X_2633_ _3117_/C _3103_/C _2637_/B vdd gnd NOR2X1
X_2495_ _2495_/A _2495_/B _2496_/A vdd gnd NOR2X1
X_3116_ _3120_/B _3118_/B vdd gnd INVX1
XFILL_0__2907_ vdd gnd FILL
XFILL_0__2769_ vdd gnd FILL
X_4165_ _4165_/D _4183_/CLK _4165_/Q vdd gnd DFFPOSX1
X_4096_ _4096_/D _4100_/CLK _4096_/Q vdd gnd DFFPOSX1
X_3047_ _3135_/A _3841_/Q _3047_/C _3048_/A vdd gnd AOI21X1
X_3949_ _3949_/D _4100_/CLK _3949_/Q vdd gnd DFFPOSX1
XFILL_1__2947_ vdd gnd FILL
XFILL_0__3810_ vdd gnd FILL
XFILL132450x122550 vdd gnd FILL
XFILL_0__2623_ vdd gnd FILL
XFILL_0__3741_ vdd gnd FILL
X_2280_ _4047_/Q _3504_/B vdd gnd INVX1
XBUFX2_insert5 _2781_/Y _2864_/A vdd gnd BUFX2
X_3803_ _4048_/Q _4097_/Q _3803_/Y vdd gnd NOR2X1
XFILL_0__3037_ vdd gnd FILL
X_2616_ _3072_/A _3072_/B _3073_/S vdd gnd NAND2X1