* NGSPICE file created from my_mcu_top.ext - technology: scmos

* Black-box entry subcircuit for MUX2X1 abstract view
.subckt MUX2X1 A B S Y vdd gnd
.ends

* Black-box entry subcircuit for OAI21X1 abstract view
.subckt OAI21X1 A B C Y vdd gnd
.ends

* Black-box entry subcircuit for DFFPOSX1 abstract view
.subckt DFFPOSX1 D CLK Q vdd gnd
.ends

* Black-box entry subcircuit for FILL abstract view
.subckt FILL vdd gnd
.ends

* Black-box entry subcircuit for NAND2X1 abstract view
.subckt NAND2X1 A B Y vdd gnd
.ends

* Black-box entry subcircuit for NOR2X1 abstract view
.subckt NOR2X1 A B Y vdd gnd
.ends

* Black-box entry subcircuit for INVX1 abstract view
.subckt INVX1 A Y vdd gnd
.ends

* Black-box entry subcircuit for BUFX2 abstract view
.subckt BUFX2 A Y vdd gnd
.ends

* Black-box entry subcircuit for AOI21X1 abstract view
.subckt AOI21X1 A B C Y vdd gnd
.ends

* Black-box entry subcircuit for AND2X2 abstract view
.subckt AND2X2 A B Y vdd gnd
.ends

* Black-box entry subcircuit for NAND3X1 abstract view
.subckt NAND3X1 A B C Y vdd gnd
.ends

* Black-box entry subcircuit for CLKBUF1 abstract view
.subckt CLKBUF1 A Y vdd gnd
.ends

* Black-box entry subcircuit for OR2X2 abstract view
.subckt OR2X2 A B Y vdd gnd
.ends

* Black-box entry subcircuit for DFFSR abstract view
.subckt DFFSR R S D CLK Q vdd gnd
.ends

* Black-box entry subcircuit for INVX2 abstract view
.subckt INVX2 A Y vdd gnd
.ends

* Black-box entry subcircuit for OAI22X1 abstract view
.subckt OAI22X1 A B C D Y vdd gnd
.ends

* Black-box entry subcircuit for AOI22X1 abstract view
.subckt AOI22X1 A B C D Y vdd gnd
.ends

* Black-box entry subcircuit for INVX8 abstract view
.subckt INVX8 A Y vdd gnd
.ends

* Black-box entry subcircuit for INVX4 abstract view
.subckt INVX4 A Y vdd gnd
.ends

* Black-box entry subcircuit for NOR3X1 abstract view
.subckt NOR3X1 A B C Y vdd gnd
.ends

.subckt my_mcu_top gnd vdd i_clk_fast i_clk_sys_ext i_rst_n o_rf_sync o_rf_sck o_rf_mosi
+ i_rf_miso o_mem_sync o_mem_sck o_mem_mosi i_mem_miso
X_2106_ _4054_/Q _3916_/Q _2122_/S _2107_/B vdd gnd MUX2X1
X_2037_ _3638_/B _2045_/B _2037_/C _2038_/A vdd gnd OAI21X1
X_3086_ _3761_/Q _3086_/B _3671_/Y _3087_/B vdd gnd MUX2X1
X_3155_ _3715_/Q _3185_/B _3155_/C _3687_/A vdd gnd OAI21X1
X_3988_ _3988_/D _4009_/CLK _3988_/Q vdd gnd DFFPOSX1
X_2939_ _2939_/A _2939_/B _2939_/C _2940_/A vdd gnd OAI21X1
XFILL128850x25350 vdd gnd FILL
XFILL128850x115350 vdd gnd FILL
XFILL_0__2593_ vdd gnd FILL
XFILL_0__2662_ vdd gnd FILL
X_3842_ _3842_/D _3996_/CLK _3842_/Q vdd gnd DFFPOSX1
X_3911_ _3911_/D _3979_/CLK _3911_/Q vdd gnd DFFPOSX1
X_2724_ _3953_/Q _2784_/B _2725_/C vdd gnd NAND2X1
X_2655_ _2655_/A _2691_/A _2658_/B vdd gnd NOR2X1
X_3773_ _3773_/D _2373_/A _3773_/Q vdd gnd DFFPOSX1
XFILL_0__3076_ vdd gnd FILL
XFILL_0__2027_ vdd gnd FILL
X_2586_ _2943_/C _2946_/C vdd gnd INVX1
X_3207_ _3716_/Q _3213_/B _3213_/C _3208_/D vdd gnd OAI21X1
X_3069_ _3069_/A _3069_/B _3914_/R _3070_/A vdd gnd OAI21X1
X_3138_ _3138_/A _3295_/A _3211_/C _3742_/D vdd gnd OAI21X1
XBUFX2_insert100 _2577_/Y _3262_/B vdd gnd BUFX2
XBUFX2_insert111 _1908_/Y _2169_/A vdd gnd BUFX2
XBUFX2_insert177 _2817_/Y _2908_/A vdd gnd BUFX2
X_2440_ _2440_/A _2457_/A vdd gnd INVX1
XBUFX2_insert166 _1943_/Y _2133_/B vdd gnd BUFX2
X_2371_ _2505_/A _2371_/B _2371_/C _4027_/D vdd gnd AOI21X1
X_4041_ _4041_/D _4041_/CLK _4041_/Q vdd gnd DFFPOSX1
X_3756_ _3756_/D _4053_/CLK _3756_/Q vdd gnd DFFPOSX1
X_3825_ _3825_/D _4008_/CLK _3825_/Q vdd gnd DFFPOSX1
X_2707_ _3959_/Q _3957_/Q _2767_/S _2709_/B vdd gnd MUX2X1
X_2569_ _4009_/Q _3015_/B _2966_/B vdd gnd NAND2X1
X_2638_ _3992_/Q _2811_/B _2638_/C _2639_/C vdd gnd OAI21X1
X_3687_ _3687_/A _3697_/A vdd gnd INVX1
XFILL_0__2361_ vdd gnd FILL
XFILL_0__2292_ vdd gnd FILL
X_1871_ _3727_/Q _1876_/B _1871_/C _1872_/B vdd gnd AOI21X1
X_1940_ _4097_/Q _1940_/B _3084_/S _1941_/B vdd gnd MUX2X1
X_3610_ _3800_/Q _3613_/C vdd gnd INVX1
X_2423_ _3756_/Q _3096_/A vdd gnd INVX1
X_3472_ _3488_/A _3638_/B _3473_/C vdd gnd NAND2X1
X_3541_ _3541_/A _3541_/B _3545_/S _3924_/D vdd gnd MUX2X1
X_2354_ _3999_/Q _3824_/Q _2356_/B vdd gnd NAND2X1
X_4024_ _4024_/D _4035_/CLK _4024_/Q vdd gnd DFFPOSX1
X_2285_ _3443_/A _2285_/B _2285_/C _3414_/A vdd gnd AOI21X1
XBUFX2_insert0 _3404_/Y _3522_/S vdd gnd BUFX2
X_3739_ _3739_/D _4080_/CLK _3739_/Q vdd gnd DFFPOSX1
X_3808_ _3808_/D _3737_/D _3808_/Q vdd gnd DFFPOSX1
XFILL_0__1861_ vdd gnd FILL
XFILL_0__3600_ vdd gnd FILL
X_2070_ _2070_/A _3910_/R _4065_/D vdd gnd AND2X2
X_2972_ _3824_/Q _3014_/B _3902_/R _2973_/C vdd gnd OAI21X1
X_1923_ _3717_/Q _1938_/B _3082_/S _1924_/C vdd gnd NAND3X1
X_2406_ _2416_/C _2406_/B _3808_/Q _2408_/B vdd gnd OAI21X1
X_3386_ _3991_/Q _3387_/A _3394_/B vdd gnd NAND2X1
X_3455_ _3964_/Q _3458_/A vdd gnd INVX1
X_3524_ _3540_/A _3651_/B _3525_/C vdd gnd NAND2X1
X_2337_ _3999_/Q _3842_/Q _2337_/C _2517_/A vdd gnd OAI21X1
X_4007_ _4007_/D _4009_/CLK _4007_/Q vdd gnd DFFPOSX1
X_2268_ _3853_/A _3302_/B _2395_/B vdd gnd NOR2X1
X_2199_ _4032_/Q _3666_/Y _2200_/C vdd gnd NOR2X1
XFILL128550x126150 vdd gnd FILL
XFILL_0__2060_ vdd gnd FILL
XCLKBUF1_insert136 CLKBUF1_insert182/Y _3821_/CLK vdd gnd CLKBUF1
XCLKBUF1_insert158 CLKBUF1_insert184/Y _3980_/CLK vdd gnd CLKBUF1
X_3240_ _3774_/Q _3630_/A vdd gnd INVX1
XCLKBUF1_insert125 CLKBUF1_insert183/Y _3997_/CLK vdd gnd CLKBUF1
XCLKBUF1_insert147 CLKBUF1_insert184/Y _4092_/CLK vdd gnd CLKBUF1
X_2053_ _3636_/B _2053_/B _2053_/C _2054_/A vdd gnd OAI21X1
X_2122_ _4058_/Q _3830_/Q _2122_/S _2123_/B vdd gnd MUX2X1
XFILL_0__3514_ vdd gnd FILL
X_3171_ _4095_/Q _3694_/A _3171_/C _3695_/C vdd gnd OAI21X1
X_2955_ _3799_/Q _3014_/B _2956_/A vdd gnd NAND2X1
XCLKBUF1_insert51 i_clk_fast _2373_/A vdd gnd CLKBUF1
XFILL_0__3445_ vdd gnd FILL
X_2886_ _3871_/Q _3869_/Q _2890_/S _2888_/B vdd gnd MUX2X1
X_1906_ _3765_/Q _3180_/B _1906_/C _2192_/C vdd gnd OAI21X1
X_3507_ _3521_/A _3647_/B _3508_/C vdd gnd NAND2X1
X_3438_ _3970_/Q _3445_/A vdd gnd INVX1
X_3369_ _3369_/A _3371_/A _3372_/A _4002_/D vdd gnd MUX2X1
X_2740_ _3945_/Q _2741_/A _2741_/C vdd gnd NAND2X1
X_2671_ _3073_/A _2671_/B _3978_/D vdd gnd NOR2X1
XFILL_0__2945_ vdd gnd FILL
X_3223_ _4096_/Q _3308_/B _3224_/C vdd gnd NOR2X1
XFILL_0__2876_ vdd gnd FILL
XFILL_0__3428_ vdd gnd FILL
X_2105_ _2129_/A _2105_/B _2108_/A vdd gnd NOR2X1
X_2036_ _2036_/A _2036_/B _2133_/B _2037_/C vdd gnd OAI21X1
X_3154_ _3185_/B _3653_/A _3155_/C vdd gnd NAND2X1
X_3085_ _3707_/A _3085_/B _3763_/D vdd gnd NOR2X1
X_2938_ _3848_/Q _2939_/A _2939_/C vdd gnd NAND2X1
XFILL_0__3359_ vdd gnd FILL
X_3987_ _3987_/D _4049_/CLK _3987_/Q vdd gnd DFFPOSX1
X_2869_ _2869_/A _3165_/C _3883_/D vdd gnd AND2X2
XFILL_0__2730_ vdd gnd FILL
X_2723_ _3951_/Q _3949_/Q _2751_/S _2725_/B vdd gnd MUX2X1
XFILL_0__3213_ vdd gnd FILL
X_3841_ _3841_/A _3845_/Y _3841_/Y vdd gnd OR2X2
X_3910_ _3910_/R vdd _3910_/D _4090_/CLK _3910_/Q vdd gnd DFFSR
X_3772_ _3910_/R vdd _3772_/D _4090_/CLK _3772_/Q vdd gnd DFFSR
XFILL_0__3144_ vdd gnd FILL
X_2654_ _3971_/Q _2688_/B _2691_/A vdd gnd NAND2X1
X_2585_ _3902_/R _3706_/B _2943_/C vdd gnd NAND2X1
X_3206_ _3714_/Q _3208_/A vdd gnd INVX1
XFILL_0__2859_ vdd gnd FILL
X_3137_ _3691_/B _3698_/B _3211_/C vdd gnd NAND2X1
X_3068_ _3068_/A _3073_/C _3775_/D vdd gnd NOR2X1
X_2019_ _2131_/A _2019_/B _2020_/B vdd gnd NOR2X1
XBUFX2_insert101 _2577_/Y _3295_/A vdd gnd BUFX2
XBUFX2_insert112 _1908_/Y _3083_/A vdd gnd BUFX2
XBUFX2_insert167 _1943_/Y _2193_/B vdd gnd BUFX2
XBUFX2_insert178 _2817_/Y _2864_/A vdd gnd BUFX2
XFILL_0__2713_ vdd gnd FILL
X_2370_ _3914_/R _4027_/Q _2371_/C vdd gnd NAND2X1
XFILL_0__2644_ vdd gnd FILL
X_4040_ _4040_/D _4093_/CLK _4040_/Q vdd gnd DFFPOSX1
XFILL_0__3693_ vdd gnd FILL
XFILL_0__2575_ vdd gnd FILL
X_2706_ _2706_/A _2952_/C _3963_/D vdd gnd AND2X2
X_3824_ _3824_/D _3996_/CLK _3824_/Q vdd gnd DFFPOSX1
XFILL_0__3058_ vdd gnd FILL
X_3686_ _3686_/A _3686_/B _3822_/D vdd gnd AND2X2
X_3755_ _3755_/D _4053_/CLK _3755_/Q vdd gnd DFFPOSX1
XFILL_0__3127_ vdd gnd FILL
X_2637_ _2637_/A _2811_/B vdd gnd INVX2
X_2568_ _2568_/A _2966_/A vdd gnd INVX1
X_2499_ _3773_/Q _2500_/A vdd gnd INVX1
XFILL_0__2009_ vdd gnd FILL
X_1870_ _3727_/Q _1876_/B _3671_/Y _1871_/C vdd gnd OAI21X1
X_3540_ _3540_/A _3926_/Q _3540_/C _3541_/B vdd gnd OAI21X1
X_2353_ _2528_/A _2528_/B _2353_/C _2357_/A vdd gnd OAI21X1
X_2422_ _2441_/A _2441_/B _3383_/A vdd gnd NOR2X1
XFILL_0__3814_ vdd gnd FILL
X_3471_ _3956_/Q _3474_/A vdd gnd INVX1
X_4023_ _4023_/D _2373_/A _4023_/Q vdd gnd DFFPOSX1
XBUFX2_insert1 _3404_/Y _3545_/S vdd gnd BUFX2
X_2284_ _3413_/B _3412_/B _2284_/C _2285_/C vdd gnd AOI21X1
XFILL_0__2558_ vdd gnd FILL
XFILL_0__2489_ vdd gnd FILL
X_3807_ _3807_/D _4025_/CLK _3807_/Q vdd gnd DFFPOSX1
X_3738_ _3738_/D _4080_/CLK _3738_/Q vdd gnd DFFPOSX1
X_3669_ _3707_/A _3670_/Y _3669_/Y vdd gnd NOR2X1
X_1999_ _4081_/Q _3642_/B vdd gnd INVX1
XFILL_0__3461_ vdd gnd FILL
XFILL_0__2343_ vdd gnd FILL
X_2971_ _3815_/Q _3807_/Q _3805_/Q _2973_/B vdd gnd MUX2X1
XFILL_0__2274_ vdd gnd FILL
X_1922_ _4000_/Q _3816_/Q _2146_/S _1924_/B vdd gnd MUX2X1
XFILL_0__3392_ vdd gnd FILL
XFILL_0__2412_ vdd gnd FILL
X_3523_ _3930_/Q _3526_/A vdd gnd INVX1
X_2336_ _2529_/A _3836_/Q _2337_/C vdd gnd OR2X2
X_2405_ _3178_/A _2405_/B _2405_/C _2406_/B vdd gnd OAI21X1
X_3385_ _3853_/A _3739_/Q _3385_/C _3387_/A vdd gnd AOI21X1
X_3454_ _3454_/A _3454_/B _3549_/S _3966_/D vdd gnd MUX2X1
XFILL_0__1989_ vdd gnd FILL
X_2267_ _3277_/B _3275_/A _3270_/A _2271_/B vdd gnd NAND3X1
X_4006_ _4006_/D _4041_/CLK _4006_/Q vdd gnd DFFPOSX1
X_2198_ _2198_/A _2198_/B _2198_/C _2549_/B vdd gnd OAI21X1
XCLKBUF1_insert115 CLKBUF1_insert181/Y _3959_/CLK vdd gnd CLKBUF1
XCLKBUF1_insert137 CLKBUF1_insert181/Y _3979_/CLK vdd gnd CLKBUF1
XFILL_0__2892_ vdd gnd FILL
XFILL_0__2961_ vdd gnd FILL
XCLKBUF1_insert126 CLKBUF1_insert180/Y _4076_/CLK vdd gnd CLKBUF1
XCLKBUF1_insert148 CLKBUF1_insert185/Y _4058_/CLK vdd gnd CLKBUF1
X_3170_ _3694_/A _3649_/A _3171_/C vdd gnd NAND2X1
X_2052_ _2052_/A _2052_/B _2053_/B _2053_/C vdd gnd OAI21X1
X_2121_ _2129_/A _2121_/B _2124_/A vdd gnd NOR2X1
X_2954_ _4014_/Q _3015_/B _3836_/Q _2956_/B vdd gnd OAI21X1
XCLKBUF1_insert52 i_clk_fast _3837_/CLK vdd gnd CLKBUF1
X_2885_ _2885_/A _2917_/B _3875_/D vdd gnd AND2X2
XFILL_0__2257_ vdd gnd FILL
X_1905_ _2146_/S _1906_/C vdd gnd INVX1
XFILL_0__2188_ vdd gnd FILL
X_3506_ _3938_/Q _3509_/A vdd gnd INVX1
X_2319_ _2529_/A _3834_/Q _2320_/C vdd gnd OR2X2
X_3299_ _3849_/A _3739_/Q _3381_/A _3303_/B vdd gnd OAI21X1
X_3437_ _3442_/A _3445_/B _3437_/C _3437_/D _3972_/D vdd gnd OAI22X1
X_3368_ _4002_/Q _3371_/A vdd gnd INVX1
XFILL_0__3091_ vdd gnd FILL
XFILL_0__2111_ vdd gnd FILL
XFILL_0__3160_ vdd gnd FILL
X_2670_ _2670_/A _2813_/S _2670_/C _3979_/D vdd gnd AOI21X1
XFILL_0__2042_ vdd gnd FILL
X_3222_ _3276_/A _3222_/B _3222_/C _3224_/B vdd gnd OAI21X1
X_2104_ _4057_/Q _3962_/Q _2128_/S _2105_/B vdd gnd MUX2X1
X_3153_ _3882_/Q _3653_/A vdd gnd INVX1
X_2035_ _2131_/A _2035_/B _2036_/B vdd gnd NOR2X1
X_3084_ _3763_/Q _3084_/B _3084_/S _3085_/B vdd gnd MUX2X1
X_3986_ _3986_/D _3986_/CLK _3986_/Q vdd gnd DFFPOSX1
X_2937_ _3998_/Q _3994_/Q _2937_/S _2939_/B vdd gnd MUX2X1
X_2868_ _2880_/A _2868_/B _2868_/C _2869_/A vdd gnd OAI21X1
X_2799_ _3913_/Q _3911_/Q _2826_/S _2801_/B vdd gnd MUX2X1
XFILL128550x75750 vdd gnd FILL
XFILL_0__2660_ vdd gnd FILL
XFILL_0__2591_ vdd gnd FILL
X_3840_ _3840_/D _3840_/CLK _3840_/Q vdd gnd DFFPOSX1
X_2722_ _2722_/A _2782_/B _3955_/D vdd gnd AND2X2
X_3771_ _3771_/D _2373_/A _3771_/Q vdd gnd DFFPOSX1
X_2653_ _2683_/A _2683_/B _2688_/B vdd gnd NOR2X1
X_2584_ _4007_/Q _2587_/B vdd gnd INVX1
XFILL_0__2927_ vdd gnd FILL
X_3067_ _3914_/R _3067_/B _3068_/A vdd gnd NAND2X1
X_3205_ _3205_/A _3293_/B _3205_/C _3205_/D _3716_/D vdd gnd AOI22X1
XFILL129150x150 vdd gnd FILL
X_3136_ _3643_/A _3643_/B _3185_/B _3691_/B vdd gnd MUX2X1
X_2018_ _4031_/Q _3872_/Q _2122_/S _2019_/B vdd gnd MUX2X1
X_3969_ _3969_/D _3986_/CLK _3969_/Q vdd gnd DFFPOSX1
XBUFX2_insert179 _2817_/Y _2926_/B vdd gnd BUFX2
XBUFX2_insert102 _2577_/Y _3698_/B vdd gnd BUFX2
XBUFX2_insert113 _1908_/Y _2129_/A vdd gnd BUFX2
XBUFX2_insert168 _1943_/Y _2161_/B vdd gnd BUFX2
X_3823_ _3823_/D _3737_/D _3823_/Q vdd gnd DFFPOSX1
X_2705_ _2815_/A _2705_/B _2705_/C _2706_/A vdd gnd OAI21X1
X_2636_ _2639_/A _2931_/B _2636_/C _3994_/D vdd gnd AOI21X1
X_3685_ _3685_/A _3711_/A _3686_/A vdd gnd NAND2X1
X_3754_ _3754_/D _4053_/CLK _3754_/Q vdd gnd DFFPOSX1
X_2567_ _3988_/Q _4007_/Q _2568_/A vdd gnd NOR2X1
X_2498_ _2662_/A _2498_/B _2498_/C _2511_/B vdd gnd AOI21X1
X_3119_ _3295_/A _3120_/A _3121_/B vdd gnd OR2X2
X_4099_ _4099_/D _4099_/CLK _4099_/Q vdd gnd DFFPOSX1
XFILL_0__2290_ vdd gnd FILL
X_2352_ _3281_/C _2352_/B _2352_/C _2528_/B vdd gnd AOI21X1
X_2421_ _3301_/B _4070_/Q _3090_/A _2441_/A vdd gnd AOI21X1
X_3470_ _3470_/A _3470_/B _3470_/S _3958_/D vdd gnd MUX2X1
X_2283_ _3987_/Q _2284_/C vdd gnd INVX1
XFILL_0__2626_ vdd gnd FILL
XFILL_0__3675_ vdd gnd FILL
XBUFX2_insert2 _3404_/Y _3531_/S vdd gnd BUFX2
X_4022_ _4022_/D _4049_/CLK _4022_/Q vdd gnd DFFPOSX1
X_3806_ _3902_/R vdd _3806_/D _4084_/CLK _3806_/Q vdd gnd DFFSR
X_2619_ _3998_/Q _2934_/B _2934_/C vdd gnd NAND2X1
XFILL_0__3109_ vdd gnd FILL
X_3599_ _3601_/C _3613_/B _3599_/C _3613_/D _3831_/D vdd gnd OAI22X1
X_3668_ _3669_/Y _3668_/Y vdd gnd INVX1
X_1998_ _1998_/A _2189_/C _4083_/D vdd gnd AND2X2
X_3737_ _3737_/D _4016_/CLK _3737_/Q vdd gnd DFFPOSX1
X_2970_ _3014_/B _2970_/B _2970_/C _3826_/D vdd gnd AOI21X1
X_1921_ _2195_/C _1921_/B _3717_/D vdd gnd NOR2X1
X_3453_ _3548_/A _3920_/Q _3453_/C _3454_/B vdd gnd OAI21X1
X_3522_ _3522_/A _3522_/B _3522_/S _3932_/D vdd gnd MUX2X1
X_2335_ _3795_/Q _2342_/A _2335_/C _2347_/A vdd gnd AOI21X1
X_2266_ _4078_/Q _3270_/A vdd gnd INVX1
X_3384_ _3853_/Y _3738_/Q _3384_/C _3385_/C vdd gnd OAI21X1
X_2404_ _3738_/Q _3739_/Q _3215_/B _2405_/C vdd gnd AOI21X1
X_4005_ _4005_/D _4009_/CLK _4005_/Q vdd gnd DFFPOSX1
XFILL_0__2609_ vdd gnd FILL
XFILL_0__3589_ vdd gnd FILL
XFILL_0__3658_ vdd gnd FILL
X_2197_ _3158_/A _4016_/Q _2198_/B vdd gnd OR2X2
XFILL129150x57750 vdd gnd FILL
XCLKBUF1_insert149 CLKBUF1_insert181/Y _3893_/CLK vdd gnd CLKBUF1
XCLKBUF1_insert127 CLKBUF1_insert182/Y _4100_/CLK vdd gnd CLKBUF1
X_2120_ _4052_/Q _3966_/Q _2128_/S _2121_/B vdd gnd MUX2X1
XCLKBUF1_insert116 CLKBUF1_insert185/Y _4049_/CLK vdd gnd CLKBUF1
XFILL_0__1911_ vdd gnd FILL
XCLKBUF1_insert138 CLKBUF1_insert183/Y _3737_/D vdd gnd CLKBUF1
XFILL_0__3443_ vdd gnd FILL
X_2051_ _2177_/C _2051_/B _2052_/B vdd gnd NOR2X1
XFILL_0__3512_ vdd gnd FILL
XFILL_0__3374_ vdd gnd FILL
X_2953_ _3023_/C _3014_/B _2953_/C _3838_/D vdd gnd AOI21X1
XFILL_0__2325_ vdd gnd FILL
X_2884_ _2896_/A _2884_/B _2884_/C _2885_/A vdd gnd OAI21X1
X_1904_ _3845_/Y _3841_/A _1904_/C _1904_/Y vdd gnd OAI21X1
XCLKBUF1_insert53 i_clk_fast _4016_/CLK vdd gnd CLKBUF1
X_3436_ _3551_/A _4055_/Q _3445_/B _3437_/D vdd gnd OAI21X1
X_3505_ _3505_/A _3505_/B _3522_/S _3940_/D vdd gnd MUX2X1
X_2318_ _3999_/Q _3824_/Q _2590_/A _2355_/A _2606_/A vdd gnd AOI22X1
X_3298_ _3302_/B _3298_/B _3381_/A vdd gnd NAND2X1
X_3367_ _3367_/A _3369_/A _3372_/A _4004_/D vdd gnd MUX2X1
XFILL129150x32550 vdd gnd FILL
X_2249_ _3412_/B _2249_/B _2286_/C vdd gnd NAND2X1
XFILL_0__2943_ vdd gnd FILL
XFILL_0__2874_ vdd gnd FILL
X_3221_ _3221_/A _3305_/B _3308_/A _3222_/C vdd gnd OAI21X1
X_3152_ _3305_/A _3305_/B _3738_/Q _3216_/B vdd gnd OAI21X1
X_2103_ _4055_/Q _3629_/B vdd gnd INVX1
X_3083_ _3083_/A _3083_/B _3083_/C _3084_/B vdd gnd OAI21X1
XFILL_0__2308_ vdd gnd FILL
X_2034_ _4035_/Q _3880_/Q _2122_/S _2035_/B vdd gnd MUX2X1
XFILL_0__3357_ vdd gnd FILL
X_3985_ _3985_/D _3985_/CLK _3985_/Q vdd gnd DFFPOSX1
X_2798_ _2798_/A _2913_/B _3917_/D vdd gnd AND2X2
X_2936_ _2936_/A _2939_/A _2936_/C _3850_/D vdd gnd AOI21X1
XFILL_0__3288_ vdd gnd FILL
X_2867_ _3883_/Q _2880_/A _2868_/C vdd gnd NAND2X1
XFILL_0__2239_ vdd gnd FILL
X_3419_ _3429_/A _3428_/A _3420_/B vdd gnd NOR2X1
XFILL_0__3211_ vdd gnd FILL
X_2652_ _3975_/Q _2683_/B vdd gnd INVX1
X_2721_ _2784_/B _2721_/B _2721_/C _2722_/A vdd gnd OAI21X1
XFILL_0__3073_ vdd gnd FILL
X_3770_ _3914_/R vdd _3770_/D _4092_/CLK _3770_/Q vdd gnd DFFSR
XFILL_0__3142_ vdd gnd FILL
XFILL_0__2024_ vdd gnd FILL
X_2583_ _3281_/C _2583_/B _3025_/A _4009_/D vdd gnd AOI21X1
X_3204_ _3718_/Q _3213_/B _3289_/C _3205_/D vdd gnd OAI21X1
X_3066_ _3066_/A _3066_/B _3066_/C _3073_/C vdd gnd AOI21X1
XFILL_0__2788_ vdd gnd FILL
X_2017_ _2049_/A _2017_/B _2020_/A vdd gnd NOR2X1
X_3135_ _3734_/Q _3643_/A vdd gnd INVX1
X_2919_ _3856_/Q _2926_/B _2920_/C vdd gnd NAND2X1
X_3968_ _3968_/D _3985_/CLK _3968_/Q vdd gnd DFFPOSX1
X_3899_ _3899_/D _3907_/CLK _3899_/Q vdd gnd DFFPOSX1
XBUFX2_insert103 _2577_/Y _3290_/B vdd gnd BUFX2
XBUFX2_insert169 _1943_/Y _2125_/B vdd gnd BUFX2
XBUFX2_insert114 _1908_/Y _2081_/A vdd gnd BUFX2
XFILL_0__2573_ vdd gnd FILL
XFILL_0__3691_ vdd gnd FILL
XFILL_0__2642_ vdd gnd FILL
X_3822_ _3822_/D _3837_/CLK _3822_/Q vdd gnd DFFPOSX1
X_2704_ _3963_/Q _2815_/A _2705_/C vdd gnd NAND2X1
XFILL_0__3056_ vdd gnd FILL
X_2635_ _3994_/Q _2931_/B _2638_/C _2636_/C vdd gnd OAI21X1
X_3684_ _3684_/A _3684_/B _3711_/A vdd gnd NOR2X1
X_3753_ _3753_/D _3885_/CLK _3866_/B vdd gnd DFFPOSX1
XFILL_0__2007_ vdd gnd FILL
X_2566_ _3032_/B _3032_/A _4014_/Q _2571_/B vdd gnd AOI21X1
X_2497_ _2671_/B _2498_/B _3067_/B _2498_/C vdd gnd OAI21X1
X_3049_ _3049_/A _3049_/B _3073_/A _3787_/D vdd gnd AOI21X1
X_4098_ _4098_/D _4098_/CLK _4098_/Q vdd gnd DFFPOSX1
X_3118_ _3118_/A _3118_/B _3118_/C _3750_/D vdd gnd AOI21X1
X_2420_ _3732_/Q _3247_/A _3301_/B vdd gnd NAND2X1
X_4021_ _4021_/D _4021_/CLK _4021_/Q vdd gnd DFFPOSX1
X_2351_ _2351_/A _2352_/C vdd gnd INVX1
X_2282_ _3413_/B _3412_/B _3443_/A vdd gnd AND2X2
XFILL_0__2487_ vdd gnd FILL
XBUFX2_insert3 _3404_/Y _3470_/S vdd gnd BUFX2
X_3805_ _3805_/D _4014_/CLK _3805_/Q vdd gnd DFFPOSX1
X_1997_ _3643_/B _2045_/B _1997_/C _1998_/A vdd gnd OAI21X1
X_3736_ _3910_/R vdd _3736_/D _3964_/CLK _3736_/Q vdd gnd DFFSR
X_2618_ _3805_/Q _2618_/B _2632_/A vdd gnd NAND2X1
X_3598_ _3831_/Q _3601_/C vdd gnd INVX1
X_2549_ _3666_/Y _2549_/B _2550_/B vdd gnd NAND2X1
X_3667_ _3707_/Y _3699_/Y _3701_/Y _3667_/Y vdd gnd AOI21X1
XFILL_0__2341_ vdd gnd FILL
XFILL_0__3390_ vdd gnd FILL
XFILL_0__2272_ vdd gnd FILL
X_1920_ _3717_/Q _1920_/B _3084_/S _1921_/B vdd gnd MUX2X1
X_3383_ _3383_/A _3383_/B _3390_/A vdd gnd NAND2X1
X_2403_ _3853_/A _3741_/Q _3215_/B vdd gnd NOR2X1
X_3452_ _3488_/A _3633_/B _3453_/C vdd gnd NAND2X1
X_3521_ _3521_/A _3934_/Q _3521_/C _3522_/B vdd gnd OAI21X1
X_2334_ _3777_/Q _2529_/A _2334_/C _2335_/C vdd gnd OAI21X1
X_2265_ _4076_/Q _3275_/A vdd gnd INVX1
XFILL_0__1987_ vdd gnd FILL
X_4004_ _4004_/D _4041_/CLK _4004_/Q vdd gnd DFFPOSX1
X_2196_ _2196_/A _2196_/B _3158_/A vdd gnd NAND2X1
X_3719_ _3719_/D _4099_/CLK _3719_/Q vdd gnd DFFPOSX1
XCLKBUF1_insert117 CLKBUF1_insert182/Y _4009_/CLK vdd gnd CLKBUF1
XFILL_0__2890_ vdd gnd FILL
X_2050_ _4039_/Q _3888_/Q _2090_/S _2051_/B vdd gnd MUX2X1
XCLKBUF1_insert139 CLKBUF1_insert185/Y _4035_/CLK vdd gnd CLKBUF1
XCLKBUF1_insert128 CLKBUF1_insert184/Y _3940_/CLK vdd gnd CLKBUF1
X_2952_ _3838_/Q _3014_/B _2952_/C _2953_/C vdd gnd OAI21X1
X_2883_ _3875_/Q _2896_/A _2884_/C vdd gnd NAND2X1
XCLKBUF1_insert54 i_clk_fast _3162_/A vdd gnd CLKBUF1
X_1903_ _3118_/C _3810_/Y _1904_/C vdd gnd NOR2X1
XFILL_0__2186_ vdd gnd FILL
X_3435_ _3974_/Q _3448_/B _3435_/C _3437_/C vdd gnd AOI21X1
X_3366_ _4004_/Q _3369_/A vdd gnd INVX1
X_3504_ _3525_/A _3942_/Q _3504_/C _3505_/B vdd gnd OAI21X1
X_2317_ _3999_/Q _3270_/A _2355_/A vdd gnd NOR2X1
X_3297_ _4066_/Q _3304_/A vdd gnd INVX1
X_2179_ _3823_/Q _3375_/B _2472_/B vdd gnd NAND2X1
XFILL_0__3709_ vdd gnd FILL
X_2248_ _3177_/A _3841_/A _3090_/A _3403_/B _2249_/B vdd gnd OAI22X1
XFILL_0__2040_ vdd gnd FILL
X_3220_ _4064_/Q _3308_/A vdd gnd INVX1
X_2102_ _2102_/A _2134_/B _4057_/D vdd gnd AND2X2
X_2033_ _2049_/A _2033_/B _2036_/A vdd gnd NOR2X1
X_3082_ _4034_/Q _3918_/Q _3082_/S _3083_/B vdd gnd MUX2X1
X_3151_ _3298_/B _3695_/B _3289_/C _3739_/D vdd gnd MUX2X1
X_3984_ _3984_/D _3996_/CLK _3984_/Q vdd gnd DFFPOSX1
X_2935_ _2935_/A _2939_/A _3845_/A _2936_/C vdd gnd OAI21X1
XFILL_0__3425_ vdd gnd FILL
X_2797_ _2801_/A _2797_/B _2797_/C _2798_/A vdd gnd OAI21X1
X_2866_ _3881_/Q _3879_/Q _2890_/S _2868_/B vdd gnd MUX2X1
X_3349_ _3349_/A _3351_/A _3349_/S _4026_/D vdd gnd MUX2X1
X_3418_ _3980_/Q _3418_/B _3420_/A vdd gnd NOR2X1
X_2651_ _3973_/Q _2683_/A vdd gnd INVX1
X_2720_ _3955_/Q _2784_/B _2721_/C vdd gnd NAND2X1
X_2582_ _4009_/Q _2583_/B vdd gnd INVX1
XFILL_0__2925_ vdd gnd FILL
X_3203_ _3716_/Q _3205_/A vdd gnd INVX1
XFILL_0__2856_ vdd gnd FILL
X_3065_ _3065_/A _3065_/B _3073_/A _3777_/D vdd gnd AOI21X1
X_3134_ _3134_/A _3290_/B _3208_/C _3743_/D vdd gnd OAI21X1
X_2016_ _4079_/Q _3940_/Q _2136_/S _2017_/B vdd gnd MUX2X1
XFILL_0__3408_ vdd gnd FILL
X_3967_ _3967_/D _3979_/CLK _3967_/Q vdd gnd DFFPOSX1
X_2918_ _3854_/Q _3852_/Q _2918_/S _2920_/B vdd gnd MUX2X1
XFILL_0__3339_ vdd gnd FILL
X_3898_ _3906_/R vdd _3898_/D _3954_/CLK _3898_/Q vdd gnd DFFSR
X_2849_ _2849_/A _2917_/B _3893_/D vdd gnd AND2X2
XBUFX2_insert104 _2289_/Y _3306_/A vdd gnd BUFX2
XBUFX2_insert159 _2694_/Y _2784_/B vdd gnd BUFX2
XFILL_0__2710_ vdd gnd FILL
X_3821_ _3821_/D _3821_/CLK _3821_/Q vdd gnd DFFPOSX1
X_3752_ _3752_/D _3885_/CLK _3752_/Q vdd gnd DFFPOSX1
XFILL_0__3124_ vdd gnd FILL
X_2565_ _2958_/A _3032_/B vdd gnd INVX1
X_2703_ _3961_/Q _3959_/Q _2767_/S _2705_/B vdd gnd MUX2X1
X_2634_ _2937_/S _3118_/C _2638_/C vdd gnd NOR2X1
X_3683_ _3684_/A _3684_/B _3700_/Y _3686_/B vdd gnd OAI21X1
X_2496_ _3983_/Q _2671_/B vdd gnd INVX1
XFILL_0__2839_ vdd gnd FILL
X_3117_ _3117_/A _3117_/B _3814_/A _3118_/B vdd gnd OAI21X1
X_3048_ _3070_/B _3048_/B _3063_/C _3049_/A vdd gnd NAND3X1
X_4097_ _4097_/D _4099_/CLK _4097_/Q vdd gnd DFFPOSX1
XFILL128850x36150 vdd gnd FILL
XFILL128850x126150 vdd gnd FILL
XFILL_0__2624_ vdd gnd FILL
X_4020_ _4020_/D _4021_/CLK _4020_/Q vdd gnd DFFPOSX1
X_2350_ _3783_/Q _2353_/C vdd gnd INVX1
X_2281_ _3785_/Q _2292_/C vdd gnd INVX1
XFILL_0__3673_ vdd gnd FILL
XFILL_0__2555_ vdd gnd FILL
XBUFX2_insert4 _3404_/Y _3549_/S vdd gnd BUFX2
XFILL_0__3038_ vdd gnd FILL
XFILL_0__3107_ vdd gnd FILL
X_3804_ _3804_/D _3900_/CLK _3804_/Q vdd gnd DFFPOSX1
X_1996_ _1996_/A _1996_/B _2045_/B _1997_/C vdd gnd OAI21X1
X_3735_ _3735_/D _3162_/A _3735_/Q vdd gnd DFFPOSX1
X_2548_ _2548_/A _2548_/B _3062_/C _4020_/D vdd gnd AOI21X1
X_2617_ _2967_/C _3999_/D vdd gnd INVX1
X_3597_ _3599_/C _3613_/B _3597_/C _3613_/D _3835_/D vdd gnd OAI22X1
X_3666_ _3765_/Q _3666_/Y vdd gnd INVX1
X_2479_ _3786_/Q _3623_/A vdd gnd INVX1
X_3520_ _3521_/A _3650_/B _3521_/C vdd gnd NAND2X1
X_2333_ _3777_/Q _2529_/A _2333_/C _2334_/C vdd gnd AOI21X1
X_2402_ _3247_/A _2405_/B vdd gnd INVX1
X_3382_ _3382_/A _3382_/B _3849_/A _3383_/B vdd gnd AOI21X1
X_3451_ _3966_/Q _3454_/A vdd gnd INVX1
X_4003_ _4003_/D _4025_/CLK _4003_/Q vdd gnd DFFPOSX1
X_2264_ _4074_/Q _3277_/B vdd gnd INVX1
XFILL_0__3587_ vdd gnd FILL
X_2195_ _2195_/A _2195_/B _2195_/C _4034_/D vdd gnd AOI21X1
XFILL_0__2538_ vdd gnd FILL
XFILL_0__2469_ vdd gnd FILL
X_3718_ _3718_/D _3821_/CLK _3718_/Q vdd gnd DFFPOSX1
X_1979_ _2177_/C _1979_/B _1980_/B vdd gnd NOR2X1
X_3649_ _3649_/A _3649_/B _3712_/S _3898_/D vdd gnd MUX2X1
XCLKBUF1_insert129 CLKBUF1_insert181/Y _3943_/CLK vdd gnd CLKBUF1
XCLKBUF1_insert118 CLKBUF1_insert183/Y _3889_/CLK vdd gnd CLKBUF1
XFILL_0__3441_ vdd gnd FILL
XFILL_0__2323_ vdd gnd FILL
X_2951_ _3801_/Q _3023_/C vdd gnd INVX1
XFILL_0__2254_ vdd gnd FILL
XCLKBUF1_insert55 i_clk_fast _4087_/CLK vdd gnd CLKBUF1
XFILL_0__3372_ vdd gnd FILL
X_1902_ _3808_/Q _3607_/A vdd gnd INVX1
X_2882_ _3873_/Q _3871_/Q _2890_/S _2884_/B vdd gnd MUX2X1
X_3503_ _3525_/A _3646_/B _3504_/C vdd gnd NAND2X1
X_2316_ _2316_/A _2316_/B _2359_/C vdd gnd NOR2X1
X_3296_ _3857_/Y _3296_/B _3296_/C _4066_/D vdd gnd OAI21X1
XFILL_0__1969_ vdd gnd FILL
X_3434_ _3434_/A _3448_/B _3551_/A _3435_/C vdd gnd OAI21X1
X_3365_ _3365_/A _3367_/A _3365_/S _4006_/D vdd gnd MUX2X1
X_2247_ _2419_/C _3090_/A vdd gnd INVX1
X_2178_ _3997_/Q _3375_/B vdd gnd INVX1
XFILL_0__2941_ vdd gnd FILL
XFILL_0__2872_ vdd gnd FILL
X_3150_ _3713_/Q _3694_/A _3150_/C _3695_/B vdd gnd OAI21X1
X_2101_ _3630_/B _2125_/B _2101_/C _2102_/A vdd gnd OAI21X1
X_2032_ _4075_/Q _3944_/Q _2064_/S _2033_/B vdd gnd MUX2X1
X_3081_ _3081_/A _3165_/C _3765_/D vdd gnd AND2X2
X_3983_ _3983_/D _4025_/CLK _3983_/Q vdd gnd DFFPOSX1
X_2934_ _2934_/A _2934_/B _2934_/C _2935_/A vdd gnd OAI21X1
X_2865_ _2865_/A _3165_/C _3885_/D vdd gnd AND2X2
XFILL_0__2237_ vdd gnd FILL
XFILL_0__3286_ vdd gnd FILL
X_2796_ _3917_/Q _2801_/A _2797_/C vdd gnd NAND2X1
XFILL_0__2168_ vdd gnd FILL
X_3348_ _4026_/Q _3351_/A vdd gnd INVX1
X_3417_ _3465_/A _3627_/B _3422_/C vdd gnd NAND2X1
X_3279_ _3648_/A _3648_/B _3279_/S _3295_/B vdd gnd MUX2X1
XFILL_0__3071_ vdd gnd FILL
XFILL_0__3140_ vdd gnd FILL
X_2650_ _3969_/Q _2655_/A vdd gnd INVX1
X_2581_ _2581_/A _2581_/B _3013_/C _4011_/D vdd gnd AOI21X1
XFILL_0__2022_ vdd gnd FILL
X_3202_ _3202_/A _3293_/B _3202_/C _3202_/D _3718_/D vdd gnd AOI22X1
X_3133_ _3306_/A _3691_/A _3208_/C vdd gnd OR2X2
XFILL_0__2786_ vdd gnd FILL
X_3064_ _3777_/Q _3064_/B _3065_/B vdd gnd NAND2X1
X_2015_ _4077_/Q _3640_/B vdd gnd INVX1
X_2917_ _2917_/A _2917_/B _3858_/D vdd gnd AND2X2
X_2848_ _2864_/A _2848_/B _2848_/C _2849_/A vdd gnd OAI21X1
X_3897_ _3897_/D _3917_/CLK _3897_/Q vdd gnd DFFPOSX1
X_3966_ _3966_/D _3985_/CLK _3966_/Q vdd gnd DFFPOSX1
X_2779_ _3923_/Q _3921_/Q _2906_/S _2781_/B vdd gnd MUX2X1
XBUFX2_insert105 _2289_/Y _3281_/C vdd gnd BUFX2
XFILL_0__2640_ vdd gnd FILL
XFILL_0__2571_ vdd gnd FILL
X_2702_ _2702_/A _2782_/B _3965_/D vdd gnd AND2X2
X_3682_ _3794_/Q _3684_/A vdd gnd INVX1
X_3751_ _3914_/R vdd _3751_/D _4092_/CLK _3751_/Q vdd gnd DFFSR
X_3820_ _3820_/D _4008_/CLK _3820_/Q vdd gnd DFFPOSX1
X_2564_ _3797_/Q _3014_/B _2958_/A vdd gnd NAND2X1
X_2633_ _3981_/Q _2633_/B _2639_/A vdd gnd NAND2X1
X_2495_ _3775_/Q _3067_/B vdd gnd INVX1
XFILL_0__2907_ vdd gnd FILL
X_4096_ _4096_/D _3685_/A _4096_/Q vdd gnd DFFPOSX1
X_3116_ _3116_/A _3120_/A _3116_/C _3752_/D vdd gnd OAI21X1
X_3047_ _3787_/Q _3064_/B _3049_/B vdd gnd NAND2X1
X_3949_ _3949_/D _3955_/CLK _3949_/Q vdd gnd DFFPOSX1
X_2280_ _3785_/Q _2280_/B _2280_/C _2296_/B vdd gnd NAND3X1
X_3803_ _3803_/D _3840_/CLK _3803_/Q vdd gnd DFFPOSX1
XFILL_0__2485_ vdd gnd FILL
XBUFX2_insert5 _2413_/Y _3349_/S vdd gnd BUFX2
X_2616_ _2616_/A _2952_/C _4001_/D vdd gnd AND2X2
X_1995_ _2083_/A _1995_/B _1996_/B vdd gnd NOR2X1
X_3665_ _3745_/Q _4032_/Q _3666_/Y _3665_/Y vdd gnd OAI21X1
X_3734_ _3906_/R vdd _3734_/D _3940_/CLK _3734_/Q vdd gnd DFFSR
X_2547_ _3070_/B _2589_/A _3063_/C _2548_/A vdd gnd NAND3X1
X_3596_ _3835_/Q _3599_/C vdd gnd INVX1
X_2478_ _2478_/A _2478_/B _3623_/B _3623_/C vdd gnd OAI21X1
X_4079_ _4079_/D _4087_/CLK _4079_/Q vdd gnd DFFPOSX1
XFILL_0__2270_ vdd gnd FILL
X_2332_ _4021_/Q _2368_/B _2333_/C vdd gnd NAND2X1
X_2401_ _3853_/Y _3849_/Y _3247_/A vdd gnd NOR2X1
X_3381_ _3381_/A _3381_/B _3853_/Y _3382_/B vdd gnd AOI21X1
X_3450_ _3553_/B _3450_/B _3450_/C _3968_/D vdd gnd OAI21X1
XFILL_0__2606_ vdd gnd FILL
X_2263_ _3265_/A _3282_/D _2271_/A vdd gnd NAND2X1
X_4002_ _4002_/D _4041_/CLK _4002_/Q vdd gnd DFFPOSX1
X_2194_ _4034_/Q _3084_/S _2195_/B vdd gnd NAND2X1
XFILL_0__3655_ vdd gnd FILL
X_3579_ _3581_/C _3585_/B _3579_/C _3583_/D _3872_/D vdd gnd OAI22X1
X_1978_ _4019_/Q _3851_/Q _2082_/S _1979_/B vdd gnd MUX2X1
X_3717_ _3717_/D _4099_/CLK _3717_/Q vdd gnd DFFPOSX1
X_3648_ _3648_/A _3648_/B _3650_/S _3902_/D vdd gnd MUX2X1
XCLKBUF1_insert119 CLKBUF1_insert180/Y _4072_/CLK vdd gnd CLKBUF1
X_2950_ _2950_/A _2950_/B _3003_/C _3840_/D vdd gnd AOI21X1
X_2881_ _2881_/A _3165_/C _3877_/D vdd gnd AND2X2
X_1901_ _1901_/A _3662_/Y _3084_/S vdd gnd NAND2X1
XFILL_0__2184_ vdd gnd FILL
X_3433_ _3433_/A _3433_/B _3434_/A vdd gnd NOR2X1
X_3502_ _3940_/Q _3505_/A vdd gnd INVX1
X_2315_ _3779_/Q _2608_/A _2315_/C _2316_/B vdd gnd OAI21X1
X_2246_ _3117_/A _3117_/B _2419_/C vdd gnd NOR2X1
X_3364_ _4006_/Q _3367_/A vdd gnd INVX1
X_3295_ _3295_/A _3295_/B _3295_/C _4066_/Q _3296_/C vdd gnd AOI22X1
XFILL_0__3638_ vdd gnd FILL
XFILL_0__3569_ vdd gnd FILL
X_2177_ _3429_/A _2187_/S _2177_/C _2181_/B vdd gnd OAI21X1
X_2100_ _2100_/A _2100_/B _2125_/B _2101_/C vdd gnd OAI21X1
X_3080_ _3083_/A _3080_/B _3080_/C _3081_/A vdd gnd OAI21X1
X_3982_ _3982_/D _4100_/CLK _3982_/Q vdd gnd DFFPOSX1
XFILL_0__3423_ vdd gnd FILL
XFILL_0__3354_ vdd gnd FILL
X_2031_ _4073_/Q _3638_/B vdd gnd INVX1
X_2795_ _3915_/Q _3913_/Q _2826_/S _2797_/B vdd gnd MUX2X1
XFILL_0__2305_ vdd gnd FILL
X_2933_ _2933_/A _2933_/B _3118_/C _3852_/D vdd gnd AOI21X1
X_2864_ _2864_/A _2864_/B _2864_/C _2865_/A vdd gnd OAI21X1
X_3416_ _3470_/S _3421_/C _3416_/C _3416_/D _3985_/D vdd gnd AOI22X1
X_3347_ _3347_/A _3349_/A _3349_/S _4029_/D vdd gnd MUX2X1
X_3278_ _3902_/Q _3648_/A vdd gnd INVX1
X_2229_ _3117_/B _2230_/C vdd gnd INVX1
XFILL_0__2923_ vdd gnd FILL
X_2580_ _3292_/B _3292_/A _2581_/A vdd gnd NAND2X1
X_3063_ _3999_/Q _3070_/B _3063_/C _3065_/A vdd gnd NAND3X1
X_3201_ _3720_/Q _3213_/B _3213_/C _3202_/D vdd gnd OAI21X1
XFILL_0__2854_ vdd gnd FILL
X_3132_ _4081_/Q _3313_/S _3132_/C _3691_/A vdd gnd OAI21X1
X_3965_ _3965_/D _3986_/CLK _3965_/Q vdd gnd DFFPOSX1
XFILL_0__3337_ vdd gnd FILL
X_2014_ _2014_/A _2189_/C _4079_/D vdd gnd AND2X2
X_2778_ _2778_/A _2913_/B _3927_/D vdd gnd AND2X2
XFILL_0__2219_ vdd gnd FILL
X_2916_ _2926_/B _2916_/B _2916_/C _2917_/A vdd gnd OAI21X1
X_2847_ _3893_/Q _2864_/A _2848_/C vdd gnd NAND2X1
X_3896_ _3896_/D _4045_/CLK _3896_/Q vdd gnd DFFPOSX1
XFILL_0__3268_ vdd gnd FILL
XBUFX2_insert106 _2289_/Y _3276_/A vdd gnd BUFX2
X_2701_ _2769_/A _2701_/B _2701_/C _2702_/A vdd gnd OAI21X1
X_2632_ _2632_/A _2931_/B vdd gnd INVX2
XFILL_0__3053_ vdd gnd FILL
X_3681_ _3828_/Q _3828_/D vdd gnd INVX1
X_3750_ _3750_/D _4053_/CLK _3814_/A vdd gnd DFFPOSX1
XFILL_0__2004_ vdd gnd FILL
XFILL_0__3122_ vdd gnd FILL
X_2563_ _4014_/Q _3015_/B _3014_/B vdd gnd NOR2X1
X_2494_ _2494_/A _3076_/A _2494_/C _2662_/A vdd gnd OAI21X1
X_3046_ _3046_/A _3046_/B _3062_/C _3789_/D vdd gnd AOI21X1