* NGSPICE file created from serv_exec_unit.ext - technology: scmos

.subckt AOI21X1 A B C Y vdd gnd
M1000 vdd A a_7_146# vdd pfet w=12u l=0.6u
+  ad=14.4p pd=14.4u as=25.2p ps=28.2u
M1001 Y C a_7_146# vdd pfet w=12u l=0.6u
+  ad=25.2p pd=28.2u as=14.4p ps=14.4u
M1002 a_28_14# A gnd gnd nfet w=6u l=0.6u
+  ad=1.8p pd=6.6u as=12.6p ps=16.2u
M1003 Y B a_28_14# gnd nfet w=6u l=0.6u
+  ad=7.2p pd=8.7u as=1.8p ps=6.6u
M1004 a_7_146# B vdd vdd pfet w=12u l=0.6u
+  ad=14.4p pd=14.4u as=14.4p ps=14.4u
M1005 gnd C Y gnd nfet w=3u l=0.6u
+  ad=6.3p pd=10.2u as=7.2p ps=8.7u
.ends

.subckt DFFPOSX1 D CLK Q vdd gnd
M1000 vdd Q a_189_206# vdd pfet w=3u l=0.6u
+  ad=10.125p pd=14.7u as=0.9p ps=3.6u
M1001 a_83_186# a_11_14# a_59_14# vdd pfet w=6u l=0.6u
+  ad=3.6p pd=7.2u as=7.2p ps=8.4u
M1002 a_87_10# a_59_14# gnd gnd nfet w=3u l=0.6u
+  ad=6.3p pd=10.2u as=4.05p ps=5.7u
M1003 gnd CLK a_11_14# gnd nfet w=6u l=0.6u
+  ad=5.85p pd=8.4u as=12.6p ps=16.2u
M1004 gnd a_87_10# a_81_14# gnd nfet w=3u l=0.6u
+  ad=4.05p pd=5.7u as=1.35p ps=3.9u
M1005 a_159_14# a_87_10# gnd gnd nfet w=3u l=0.6u
+  ad=0.9p pd=3.6u as=6.3p ps=10.2u
M1006 a_49_186# D vdd vdd pfet w=6u l=0.6u
+  ad=4.5p pd=7.5u as=11.25p ps=14.4u
M1007 vdd a_87_10# a_83_186# vdd pfet w=6u l=0.6u
+  ad=7.2p pd=8.4u as=3.6p ps=7.2u
M1008 Q a_167_14# gnd gnd nfet w=6u l=0.6u
+  ad=12.6p pd=16.2u as=6.975p ps=8.7u
M1009 Q a_167_14# vdd vdd pfet w=12u l=0.6u
+  ad=25.2p pd=28.2u as=10.125p ps=14.7u
M1010 a_167_14# CLK a_159_14# gnd nfet w=3u l=0.6u
+  ad=3.6p pd=5.4u as=0.9p ps=3.6u
M1011 a_49_14# D gnd gnd nfet w=3u l=0.6u
+  ad=1.35p pd=3.9u as=5.85p ps=8.4u
M1012 a_87_10# a_59_14# vdd vdd pfet w=6u l=0.6u
+  ad=12.6p pd=16.2u as=7.2p ps=8.4u
M1013 a_59_14# CLK a_49_186# vdd pfet w=6u l=0.6u
+  ad=7.2p pd=8.4u as=4.5p ps=7.5u
M1014 a_161_186# a_87_10# vdd vdd pfet w=6u l=0.6u
+  ad=1.8p pd=6.6u as=12.6p ps=16.2u
M1015 a_189_206# CLK a_167_14# vdd pfet w=3u l=0.6u
+  ad=0.9p pd=3.6u as=6.075p ps=8.4u
M1016 a_59_14# a_11_14# a_49_14# gnd nfet w=3u l=0.6u
+  ad=4.05p pd=5.7u as=1.35p ps=3.9u
M1017 a_187_14# a_11_14# a_167_14# gnd nfet w=3u l=0.6u
+  ad=1.35p pd=3.9u as=3.6p ps=5.4u
M1018 vdd CLK a_11_14# vdd pfet w=12u l=0.6u
+  ad=11.25p pd=14.4u as=25.2p ps=28.2u
M1019 gnd Q a_187_14# gnd nfet w=3u l=0.6u
+  ad=6.975p pd=8.7u as=1.35p ps=3.9u
M1020 a_167_14# a_11_14# a_161_186# vdd pfet w=6u l=0.6u
+  ad=6.075p pd=8.4u as=1.8p ps=6.6u
M1021 a_81_14# CLK a_59_14# gnd nfet w=3u l=0.6u
+  ad=1.35p pd=3.9u as=4.05p ps=5.7u
.ends

.subckt OAI21X1 A B C Y vdd gnd
M1000 Y C a_7_14# gnd nfet w=6u l=0.6u
+  ad=12.6p pd=16.2u as=7.2p ps=8.4u
M1001 a_30_146# A vdd vdd pfet w=12u l=0.6u
+  ad=3.6p pd=12.6u as=25.2p ps=28.2u
M1002 vdd C Y vdd pfet w=6u l=0.6u
+  ad=12.6p pd=16.2u as=14.4p ps=14.7u
M1003 gnd A a_7_14# gnd nfet w=6u l=0.6u
+  ad=7.2p pd=8.4u as=12.6p ps=16.2u
M1004 Y B a_30_146# vdd pfet w=12u l=0.6u
+  ad=14.4p pd=14.7u as=3.6p ps=12.6u
M1005 a_7_14# B gnd gnd nfet w=6u l=0.6u
+  ad=7.2p pd=8.4u as=7.2p ps=8.4u
.ends

.subckt INVX1 A Y vdd gnd
M1000 Y A gnd gnd nfet w=3u l=0.6u
+  ad=6.3p pd=10.2u as=6.3p ps=10.2u
M1001 Y A vdd vdd pfet w=6u l=0.6u
+  ad=12.6p pd=16.2u as=12.6p ps=16.2u
.ends

.subckt AND2X2 A B Y vdd gnd
M1000 a_25_14# A a_7_14# gnd nfet w=6u l=0.6u
+  ad=2.7p pd=6.9u as=12.6p ps=16.2u
M1001 gnd B a_25_14# gnd nfet w=6u l=0.6u
+  ad=7.2p pd=8.4u as=2.7p ps=6.9u
M1002 vdd B a_7_14# vdd pfet w=6u l=0.6u
+  ad=14.4p pd=14.7u as=8.1p ps=8.7u
M1003 Y a_7_14# gnd gnd nfet w=6u l=0.6u
+  ad=12.6p pd=16.2u as=7.2p ps=8.4u
M1004 Y a_7_14# vdd vdd pfet w=12u l=0.6u
+  ad=25.2p pd=28.2u as=14.4p ps=14.7u
M1005 a_7_14# A vdd vdd pfet w=6u l=0.6u
+  ad=8.1p pd=8.7u as=12.6p ps=16.2u
.ends

.subckt NAND2X1 A B Y vdd gnd
M1000 a_27_14# A gnd gnd nfet w=6u l=0.6u
+  ad=2.7p pd=6.9u as=12.6p ps=16.2u
M1001 Y B a_27_14# gnd nfet w=6u l=0.6u
+  ad=12.6p pd=16.2u as=2.7p ps=6.9u
M1002 vdd B Y vdd pfet w=6u l=0.6u
+  ad=12.6p pd=16.2u as=7.2p ps=8.4u
M1003 Y A vdd vdd pfet w=6u l=0.6u
+  ad=7.2p pd=8.4u as=12.6p ps=16.2u
.ends

.subckt AOI22X1 A B C D Y vdd gnd
M1000 gnd C a_56_14# gnd nfet w=6u l=0.6u
+  ad=12.6p pd=16.2u as=1.8p ps=6.6u
M1001 vdd A a_7_146# vdd pfet w=12u l=0.6u
+  ad=14.4p pd=14.4u as=25.2p ps=28.2u
M1002 Y D a_7_146# vdd pfet w=12u l=0.6u
+  ad=14.4p pd=14.4u as=14.4p ps=14.4u
M1003 a_28_14# A gnd gnd nfet w=6u l=0.6u
+  ad=1.8p pd=6.6u as=12.6p ps=16.2u
M1004 Y B a_28_14# gnd nfet w=6u l=0.6u
+  ad=7.2p pd=8.4u as=1.8p ps=6.6u
M1005 a_7_146# C Y vdd pfet w=12u l=0.6u
+  ad=25.2p pd=28.2u as=14.4p ps=14.4u
M1006 a_7_146# B vdd vdd pfet w=12u l=0.6u
+  ad=14.4p pd=14.4u as=14.4p ps=14.4u
M1007 a_56_14# D Y gnd nfet w=6u l=0.6u
+  ad=1.8p pd=6.6u as=7.2p ps=8.4u
.ends

.subckt BUFX2 A Y vdd gnd
M1000 Y a_7_14# vdd vdd pfet w=12u l=0.6u
+  ad=25.2p pd=28.2u as=14.4p ps=14.7u
M1001 gnd A a_7_14# gnd nfet w=3u l=0.6u
+  ad=7.2p pd=8.7u as=6.3p ps=10.2u
M1002 Y a_7_14# gnd gnd nfet w=6u l=0.6u
+  ad=12.6p pd=16.2u as=7.2p ps=8.7u
M1003 vdd A a_7_14# vdd pfet w=6u l=0.6u
+  ad=14.4p pd=14.7u as=12.6p ps=16.2u
.ends

.subckt CLKBUF1 A Y vdd gnd
M1000 Y a_105_14# vdd vdd pfet w=12u l=0.6u
+  ad=14.4p pd=14.4u as=14.4p ps=14.4u
M1001 a_65_14# a_25_14# gnd gnd nfet w=6u l=0.6u
+  ad=7.2p pd=8.4u as=7.2p ps=8.4u
M1002 a_105_14# a_65_14# vdd vdd pfet w=12u l=0.6u
+  ad=14.4p pd=14.4u as=14.4p ps=14.4u
M1003 Y a_105_14# gnd gnd nfet w=6u l=0.6u
+  ad=7.2p pd=8.4u as=7.2p ps=8.4u
M1004 a_25_14# A vdd vdd pfet w=12u l=0.6u
+  ad=14.4p pd=14.4u as=25.2p ps=28.2u
M1005 a_65_14# a_25_14# vdd vdd pfet w=12u l=0.6u
+  ad=14.4p pd=14.4u as=14.4p ps=14.4u
M1006 a_25_14# A gnd gnd nfet w=6u l=0.6u
+  ad=7.2p pd=8.4u as=12.6p ps=16.2u
M1007 gnd a_25_14# a_65_14# gnd nfet w=6u l=0.6u
+  ad=7.2p pd=8.4u as=7.2p ps=8.4u
M1008 a_105_14# a_65_14# gnd gnd nfet w=6u l=0.6u
+  ad=7.2p pd=8.4u as=7.2p ps=8.4u
M1009 gnd a_105_14# Y gnd nfet w=6u l=0.6u
+  ad=12.6p pd=16.2u as=7.2p ps=8.4u
M1010 vdd a_65_14# a_105_14# vdd pfet w=12u l=0.6u
+  ad=14.4p pd=14.4u as=14.4p ps=14.4u
M1011 vdd a_105_14# Y vdd pfet w=12u l=0.6u
+  ad=25.2p pd=28.2u as=14.4p ps=14.4u
M1012 vdd a_25_14# a_65_14# vdd pfet w=12u l=0.6u
+  ad=14.4p pd=14.4u as=14.4p ps=14.4u
M1013 gnd A a_25_14# gnd nfet w=6u l=0.6u
+  ad=7.2p pd=8.4u as=7.2p ps=8.4u
M1014 vdd A a_25_14# vdd pfet w=12u l=0.6u
+  ad=14.4p pd=14.4u as=14.4p ps=14.4u
M1015 gnd a_65_14# a_105_14# gnd nfet w=6u l=0.6u
+  ad=7.2p pd=8.4u as=7.2p ps=8.4u
.ends

.subckt NOR3X1 A B C Y vdd gnd
M1000 gnd B Y gnd nfet w=3u l=0.6u
+  ad=3.6p pd=5.4u as=3.6p ps=5.4u
M1001 a_7_166# A vdd vdd pfet w=9u l=0.6u
+  ad=10.8p pd=11.4u as=10.8p ps=11.4u
M1002 a_7_166# B a_65_166# vdd pfet w=9u l=0.6u
+  ad=18.9p pd=22.2u as=10.8p ps=11.4u
M1003 a_65_166# C Y vdd pfet w=9u l=0.6u
+  ad=18.9p pd=22.2u as=10.8p ps=11.4u
M1004 Y C gnd gnd nfet w=3u l=0.6u
+  ad=6.3p pd=10.2u as=3.6p ps=5.4u
M1005 a_65_166# B a_7_166# vdd pfet w=9u l=0.6u
+  ad=10.8p pd=11.4u as=10.8p ps=11.4u
M1006 vdd A a_7_166# vdd pfet w=9u l=0.6u
+  ad=10.8p pd=11.4u as=18.9p ps=22.2u
M1007 Y C a_65_166# vdd pfet w=9u l=0.6u
+  ad=10.8p pd=11.4u as=18.9p ps=22.2u
M1008 Y A gnd gnd nfet w=3u l=0.6u
+  ad=3.6p pd=5.4u as=7.2p ps=10.8u
.ends

.subckt NOR2X1 A B Y vdd gnd
M1000 a_25_146# A vdd vdd pfet w=12u l=0.6u
+  ad=3.6p pd=12.6u as=25.2p ps=28.2u
M1001 Y A gnd gnd nfet w=3u l=0.6u
+  ad=3.6p pd=5.4u as=6.3p ps=10.2u
M1002 Y B a_25_146# vdd pfet w=12u l=0.6u
+  ad=25.2p pd=28.2u as=3.6p ps=12.6u
M1003 gnd B Y gnd nfet w=3u l=0.6u
+  ad=6.3p pd=10.2u as=3.6p ps=5.4u
.ends

.subckt INVX2 A Y vdd gnd
M1000 Y A vdd vdd pfet w=12u l=0.6u
+  ad=25.2p pd=28.2u as=25.2p ps=28.2u
M1001 Y A gnd gnd nfet w=6u l=0.6u
+  ad=12.6p pd=16.2u as=12.6p ps=16.2u
.ends

.subckt NAND3X1 A B C Y vdd gnd
M1000 Y C a_34_14# gnd nfet w=9u l=0.6u
+  ad=18.9p pd=22.2u as=2.7p ps=9.6u
M1001 a_26_14# A gnd gnd nfet w=9u l=0.6u
+  ad=2.7p pd=9.6u as=18.9p ps=22.2u
M1002 vdd B Y vdd pfet w=6u l=0.6u
+  ad=7.2p pd=8.4u as=7.2p ps=8.4u
M1003 a_34_14# B a_26_14# gnd nfet w=9u l=0.6u
+  ad=2.7p pd=9.6u as=2.7p ps=9.6u
M1004 Y C vdd vdd pfet w=6u l=0.6u
+  ad=12.6p pd=16.2u as=7.2p ps=8.4u
M1005 Y A vdd vdd pfet w=6u l=0.6u
+  ad=7.2p pd=8.4u as=12.6p ps=16.2u
.ends

.subckt OAI22X1 A B C D Y vdd gnd
M1000 Y D a_7_14# gnd nfet w=6u l=0.6u
+  ad=7.2p pd=8.4u as=7.2p ps=8.4u
M1001 a_25_146# A vdd vdd pfet w=12u l=0.6u
+  ad=5.4p pd=12.9u as=25.2p ps=28.2u
M1002 a_65_146# D Y vdd pfet w=12u l=0.6u
+  ad=5.4p pd=12.9u as=23.4p ps=15.9u
M1003 gnd A a_7_14# gnd nfet w=6u l=0.6u
+  ad=7.2p pd=8.4u as=12.6p ps=16.2u
M1004 a_7_14# C Y gnd nfet w=6u l=0.6u
+  ad=12.6p pd=16.2u as=7.2p ps=8.4u
M1005 a_7_14# B gnd gnd nfet w=6u l=0.6u
+  ad=7.2p pd=8.4u as=7.2p ps=8.4u
M1006 Y B a_25_146# vdd pfet w=12u l=0.6u
+  ad=23.4p pd=15.9u as=5.4p ps=12.9u
M1007 vdd C a_65_146# vdd pfet w=12u l=0.6u
+  ad=25.2p pd=28.2u as=5.4p ps=12.9u
.ends

.subckt OR2X2 A B Y vdd gnd
M1000 Y a_7_146# gnd gnd nfet w=6u l=0.6u
+  ad=12.6p pd=16.2u as=6.3p ps=8.4u
M1001 a_25_146# A a_7_146# vdd pfet w=12u l=0.6u
+  ad=5.4p pd=12.9u as=25.2p ps=28.2u
M1002 a_7_146# A gnd gnd nfet w=3u l=0.6u
+  ad=3.6p pd=5.4u as=6.3p ps=10.2u
M1003 Y a_7_146# vdd vdd pfet w=12u l=0.6u
+  ad=25.2p pd=28.2u as=14.4p ps=14.4u
M1004 gnd B a_7_146# gnd nfet w=3u l=0.6u
+  ad=6.3p pd=8.4u as=3.6p ps=5.4u
M1005 vdd B a_25_146# vdd pfet w=12u l=0.6u
+  ad=14.4p pd=14.4u as=5.4p ps=12.9u
.ends

.subckt INVX8 A Y vdd gnd
M1000 Y A gnd gnd nfet w=6u l=0.6u
+  ad=7.2p pd=8.4u as=7.2p ps=8.4u
M1001 Y A vdd vdd pfet w=12u l=0.6u
+  ad=14.4p pd=14.4u as=25.2p ps=28.2u
M1002 Y A vdd vdd pfet w=12u l=0.6u
+  ad=14.4p pd=14.4u as=14.4p ps=14.4u
M1003 Y A gnd gnd nfet w=6u l=0.6u
+  ad=7.2p pd=8.4u as=12.6p ps=16.2u
M1004 gnd A Y gnd nfet w=6u l=0.6u
+  ad=12.6p pd=16.2u as=7.2p ps=8.4u
M1005 vdd A Y vdd pfet w=12u l=0.6u
+  ad=25.2p pd=28.2u as=14.4p ps=14.4u
M1006 gnd A Y gnd nfet w=6u l=0.6u
+  ad=7.2p pd=8.4u as=7.2p ps=8.4u
M1007 vdd A Y vdd pfet w=12u l=0.6u
+  ad=14.4p pd=14.4u as=14.4p ps=14.4u
.ends

.subckt serv_exec_unit gnd vdd clk rst_n cmd_valid cmd_ready cmd_op[3] cmd_op[2] cmd_op[1]
+ cmd_op[0] cmd_a cmd_b cmd_last rsp_valid rsp_ready rsp_result rsp_flags[5] rsp_flags[4]
+ rsp_flags[3] rsp_flags[2] rsp_flags[1] rsp_flags[0] rsp_last busy debug_state[2]
+ debug_state[1] debug_state[0]
X_1270_ _1270_/A _1270_/B _1517_/C _1630_/D vdd gnd AOI21X1
X_1606_ _1606_/D _1651_/CLK _1606_/Q vdd gnd DFFPOSX1
X_1399_ _1449_/A _1434_/B _1625_/Q _1401_/A vdd gnd OAI21X1
X_1468_ _1574_/Q _1469_/C vdd gnd INVX1
X_1537_ _1537_/D _1651_/CLK _1537_/Q vdd gnd DFFPOSX1
X_981_ _981_/A _981_/B _984_/C vdd gnd AND2X2
X_1253_ _1253_/A _1253_/B _1500_/C _1255_/A vdd gnd OAI21X1
X_1322_ _977_/B _1332_/B _1327_/A vdd gnd NAND2X1
X_1184_ _1184_/A _885_/B _1185_/B vdd gnd NAND2X1
X_895_ _895_/A _895_/B _895_/C _895_/Y vdd gnd AOI21X1
X_964_ _964_/A _964_/B _964_/C _964_/D _965_/B vdd gnd AOI22X1
X_1236_ _1644_/Q _964_/B _964_/C _1642_/Q _1237_/B vdd gnd AOI22X1
X_1305_ _1616_/Q _1454_/B _1453_/C _1306_/C vdd gnd OAI21X1
X_1098_ _1098_/A _1098_/B _963_/C _1100_/A vdd gnd OAI21X1
X_1167_ _903_/C _1278_/B _1167_/C _1168_/B vdd gnd OAI21X1
XBUFX2_insert0 _896_/Y _1532_/C vdd gnd BUFX2
X_878_ _917_/A _990_/A _920_/B vdd gnd NAND2X1
X_947_ _947_/A _947_/B _947_/C _947_/Y vdd gnd AOI21X1
X_1021_ _1520_/C _1508_/B _1021_/C _1023_/A vdd gnd AOI21X1
X_1219_ _1650_/Q _911_/B _889_/A _1648_/Q _1220_/B vdd gnd AOI22X1
X_801_ _804_/Y _802_/Y _801_/Y vdd gnd NAND2X1
X_1570_ _1570_/D _1653_/CLK _957_/A vdd gnd DFFPOSX1
X_1004_ _1004_/A _1004_/B _1500_/C _1006_/A vdd gnd OAI21X1
XCLKBUF1_insert40 clk _767_/CLK vdd gnd CLKBUF1
X_1622_ _1622_/D _1655_/CLK _1622_/Q vdd gnd DFFPOSX1
X_1484_ _1484_/A _1484_/B _947_/C _1542_/D vdd gnd AOI21X1
X_1553_ _1553_/D _1654_/CLK _968_/A vdd gnd DFFPOSX1
X_1536_ _1536_/D _1637_/CLK _1536_/Q vdd gnd DFFPOSX1
X_1605_ _947_/Y _1644_/CLK _954_/A vdd gnd DFFPOSX1
X_1398_ _1398_/A _1450_/B _1398_/C _1625_/D vdd gnd AOI21X1
X_1467_ _1467_/A _1467_/B _1467_/C _1590_/D vdd gnd AOI21X1
X_980_ _980_/A _980_/B _985_/A vdd gnd NAND2X1
X_1252_ _1296_/A _1493_/B _1252_/C _1253_/B vdd gnd NOR3X1
X_1321_ _1337_/A _1321_/B _1321_/C _1592_/D vdd gnd AOI21X1
X_1183_ _924_/A _944_/B _1184_/A vdd gnd NOR2X1
X_1519_ _1519_/A _1519_/B _1519_/C _1521_/A vdd gnd AOI21X1
X_894_ _894_/A _911_/B _894_/C _905_/A _895_/A vdd gnd AOI22X1
X_963_ _963_/A _963_/B _963_/C _965_/A vdd gnd OAI21X1
X_1166_ cmd_a _1524_/A _1278_/B vdd gnd NAND2X1
X_1235_ _963_/C _1235_/B _1237_/A vdd gnd NAND2X1
X_1304_ _1465_/B _1455_/B _1537_/Q _1306_/A vdd gnd OAI21X1
XBUFX2_insert1 _896_/Y _963_/C vdd gnd BUFX2
X_1097_ _1284_/A _1493_/B _1481_/A _1098_/B vdd gnd NOR3X1
X_877_ _959_/B _990_/A vdd gnd INVX2
X_946_ _946_/A _946_/B _946_/C _954_/A _947_/B vdd gnd AOI22X1
X_1020_ _959_/B _990_/C _1508_/B vdd gnd NOR2X1
X_1149_ _1337_/A _1321_/B _1149_/C _1553_/D vdd gnd AOI21X1
X_1218_ _1218_/A _1218_/B _1532_/C _1220_/A vdd gnd OAI21X1
X_800_ _808_/Y _806_/Y _801_/Y _800_/Y vdd gnd NAND3X1
X_929_ _957_/B _958_/A _929_/C _932_/A vdd gnd NAND3X1
X_1003_ _874_/A _1499_/B _1252_/C _1004_/B vdd gnd NOR3X1
XCLKBUF1_insert41 clk _1644_/CLK vdd gnd CLKBUF1
X_1552_ _1552_/D _1637_/CLK _1552_/Q vdd gnd DFFPOSX1
X_1621_ _1621_/D _1651_/CLK _1621_/Q vdd gnd DFFPOSX1
X_1483_ _1558_/Q _946_/B _964_/C _1542_/Q _1484_/B vdd gnd AOI22X1
X_1535_ _1535_/D _1651_/CLK _850_/A vdd gnd DFFPOSX1
X_1604_ _1604_/D _1653_/CLK _842_/A vdd gnd DFFPOSX1
X_1397_ _1625_/Q _1435_/B _1453_/C _1398_/C vdd gnd OAI21X1
X_1466_ _755_/A _1467_/B _1466_/C _1467_/C vdd gnd OAI21X1
X_1320_ _860_/A _1320_/B _1321_/C vdd gnd NAND2X1
X_1182_ _1539_/Q _1182_/B _1185_/A vdd gnd NAND2X1
X_1251_ _1498_/A _1251_/B _1251_/C _1253_/A vdd gnd AOI21X1
X_1449_ _1449_/A _850_/B _1635_/Q _1451_/A vdd gnd OAI21X1
X_1518_ _1598_/Q _1519_/C vdd gnd INVX1
X_893_ _908_/A _893_/B _908_/C _894_/C vdd gnd OAI21X1
X_962_ _962_/A _962_/B _962_/C _963_/B vdd gnd NOR3X1
X_1303_ _980_/A _980_/B _1303_/C _1303_/Y vdd gnd NAND3X1
X_1096_ cmd_a _961_/B _961_/C _1284_/A vdd gnd NAND3X1
X_1165_ _1289_/B _1277_/B _1545_/Q _1167_/C vdd gnd OAI21X1
X_1234_ _962_/C _1234_/B _1234_/C _1235_/B vdd gnd OAI21X1
XBUFX2_insert2 _896_/Y _945_/C vdd gnd BUFX2
X_945_ _945_/A _945_/B _945_/C _947_/A vdd gnd OAI21X1
X_876_ _929_/C _939_/C _920_/A vdd gnd NAND2X1
X_1079_ _1541_/Q _946_/B _946_/C _1573_/Q _1080_/B vdd gnd AOI22X1
X_1148_ _968_/A _1365_/C _1149_/C vdd gnd NAND2X1
X_1217_ _1261_/A _1499_/B _1252_/C _1218_/B vdd gnd NOR3X1
X_928_ _946_/A _931_/C vdd gnd INVX1
X_859_ _859_/A _859_/B _859_/C _859_/D _859_/Y vdd gnd OAI22X1
X_1002_ _1492_/A _1251_/B _1002_/C _1004_/A vdd gnd AOI21X1
XCLKBUF1_insert42 clk _1655_/CLK vdd gnd CLKBUF1
X_1482_ _963_/C _1482_/B _1484_/A vdd gnd NAND2X1
X_1551_ _1551_/D _1653_/CLK _845_/A vdd gnd DFFPOSX1
X_1620_ _1620_/D _1654_/CLK _1620_/Q vdd gnd DFFPOSX1
X_1465_ _1606_/Q _1465_/B _1465_/C _1465_/D _1467_/A vdd gnd AOI22X1
X_1534_ _1534_/A _1534_/B _895_/C _1566_/D vdd gnd AOI21X1
X_1603_ _955_/Y _1647_/CLK _964_/A vdd gnd DFFPOSX1
X_1396_ _1449_/A _1455_/B _1629_/Q _1398_/A vdd gnd OAI21X1
X_1181_ _1181_/A _1181_/B _947_/C _1541_/D vdd gnd AOI21X1
X_1250_ _1636_/Q _1251_/C vdd gnd INVX1
X_1448_ _1448_/A _1450_/B _1448_/C _1635_/D vdd gnd AOI21X1
X_1517_ _1517_/A _1517_/B _1517_/C _1639_/D vdd gnd AOI21X1
X_1379_ _1379_/A _1379_/B _828_/B _1383_/B vdd gnd OAI21X1
X_961_ cmd_b _961_/B _961_/C _962_/A vdd gnd NAND3X1
X_892_ _892_/A _892_/B _893_/B vdd gnd NOR2X1
X_1233_ _949_/A _950_/A _1642_/Q _1234_/C vdd gnd OAI21X1
X_1302_ _1302_/A _1302_/B _895_/C _1618_/D vdd gnd AOI21X1
X_1095_ _960_/A _1498_/B _1095_/C _1098_/A vdd gnd AOI21X1
X_1164_ _1164_/A _1164_/B _1523_/C _1547_/D vdd gnd AOI21X1
XBUFX2_insert3 _896_/Y _1285_/C vdd gnd BUFX2
X_944_ _944_/A _944_/B _962_/C _945_/B vdd gnd NOR3X1
X_875_ _973_/B _948_/C _891_/A _907_/A vdd gnd NAND3X1
X_1216_ _973_/A _892_/A _1216_/C _1218_/A vdd gnd AOI21X1
X_1078_ _1078_/A _1078_/B _945_/C _1080_/A vdd gnd OAI21X1
X_1147_ _1319_/C _970_/B _1533_/B _1321_/B vdd gnd OAI21X1
X_858_ _858_/A _859_/B _858_/C _858_/Y vdd gnd OAI21X1
X_927_ _927_/A _927_/B _947_/C _927_/Y vdd gnd AOI21X1
X_789_ _790_/Y _805_/Y _789_/Y vdd gnd NAND2X1
X_1001_ _873_/C _959_/B _1492_/A vdd gnd AND2X2
XCLKBUF1_insert43 clk _1650_/CLK vdd gnd CLKBUF1
X_1481_ _1481_/A _952_/B _1481_/C _1482_/B vdd gnd OAI21X1
X_1550_ _1550_/D _1650_/CLK _1550_/Q vdd gnd DFFPOSX1
X_1602_ _1602_/D _1651_/CLK _1602_/Q vdd gnd DFFPOSX1
X_1395_ _1395_/A _1450_/B _1395_/C _1629_/D vdd gnd AOI21X1
X_1464_ _848_/B _1464_/B _1465_/B _1465_/C vdd gnd AOI21X1
X_1533_ _1655_/Q _1533_/B _889_/A _894_/A _1534_/B vdd gnd AOI22X1
X_1180_ _1180_/A _885_/B _1181_/B vdd gnd NAND2X1
X_1516_ _1550_/Q _1522_/B _1522_/C _1639_/Q _1517_/B vdd gnd AOI22X1
X_1378_ _1378_/A _1378_/B _999_/C _1649_/D vdd gnd AOI21X1
X_1447_ _1635_/Q _1450_/B _1453_/C _1448_/C vdd gnd OAI21X1
X_891_ _891_/A _891_/B _892_/B vdd gnd NAND2X1
X_960_ _960_/A _990_/B _960_/C _963_/A vdd gnd AOI21X1
X_1232_ _1232_/A _1232_/B _965_/C _1644_/D vdd gnd AOI21X1
X_1301_ _1620_/Q _1533_/B _1301_/C _808_/B _1302_/A vdd gnd AOI22X1
X_1094_ _1567_/Q _1095_/C vdd gnd INVX1
X_1163_ _1549_/Q _1334_/A _1280_/C _1547_/Q _1164_/B vdd gnd AOI22X1
XBUFX2_insert4 _896_/Y _910_/A vdd gnd BUFX2
X_874_ _874_/A _874_/B _885_/A vdd gnd NOR2X1
X_943_ cmd_b _961_/C _943_/C _944_/A vdd gnd NAND3X1
X_1146_ _969_/A _1319_/C vdd gnd INVX1
X_1215_ _1648_/Q _1216_/C vdd gnd INVX1
X_1077_ _1267_/A _962_/B _1481_/A _1078_/B vdd gnd NOR3X1
X_788_ _791_/Y _789_/Y _788_/Y vdd gnd NAND2X1
X_857_ _857_/A _857_/B _857_/C _857_/Y vdd gnd OAI21X1
X_926_ _926_/A _946_/B _946_/C _936_/A _927_/B vdd gnd AOI22X1
X_1000_ _1595_/Q _1002_/C vdd gnd INVX1
XCLKBUF1_insert44 clk _1651_/CLK vdd gnd CLKBUF1
X_1129_ _887_/A _986_/A _1416_/C _1427_/A vdd gnd OAI21X1
X_1480_ _941_/B _950_/A _1542_/Q _1481_/C vdd gnd OAI21X1
X_909_ _926_/A _909_/B _912_/B vdd gnd NAND2X1
X_1532_ _1532_/A _1532_/B _1532_/C _1534_/A vdd gnd OAI21X1
X_1601_ _965_/Y _1644_/CLK _964_/D vdd gnd DFFPOSX1
X_1394_ _1629_/Q _1450_/B _1453_/C _1395_/C vdd gnd OAI21X1
X_1463_ _1463_/A _1463_/B _1463_/C _1465_/D vdd gnd NAND3X1
X_1515_ _1515_/A _1515_/B _910_/A _1517_/A vdd gnd OAI21X1
X_1377_ _997_/C _1377_/B _1386_/A _1378_/A vdd gnd NAND3X1
X_1446_ _1465_/B _1455_/B _1643_/Q _1448_/A vdd gnd OAI21X1
X_890_ _957_/A _939_/C _891_/B vdd gnd NOR2X1
X_1162_ _1162_/A _1162_/B _1274_/C _1164_/A vdd gnd OAI21X1
X_1231_ _1646_/Q _964_/B _964_/C _1644_/Q _1232_/B vdd gnd AOI22X1
X_1300_ cmd_a _1319_/B _1300_/C _1302_/B vdd gnd NAND3X1
X_1093_ _1093_/A _1093_/B _947_/C _1569_/D vdd gnd AOI21X1
XBUFX2_insert5 _896_/Y _1500_/C vdd gnd BUFX2
X_1429_ _1562_/Q _1430_/B _1466_/C _1430_/C vdd gnd OAI21X1
X_873_ cmd_b _961_/C _873_/C _874_/A vdd gnd NAND3X1
X_942_ _942_/A _943_/C vdd gnd INVX1
X_1145_ _1332_/B _1337_/A vdd gnd INVX1
X_1214_ _1214_/A _1214_/B _912_/C _1650_/D vdd gnd AOI21X1
X_1076_ cmd_a _961_/C _933_/C _1267_/A vdd gnd NAND3X1
X_925_ _925_/A _925_/B _945_/C _927_/A vdd gnd OAI21X1
X_787_ _792_/Y _791_/Y _825_/Y _788_/Y _787_/Y vdd gnd OAI22X1
X_856_ _856_/A _857_/B _856_/Y vdd gnd NOR2X1
XCLKBUF1_insert34 clk _1647_/CLK vdd gnd CLKBUF1
X_1059_ _1059_/A _1059_/B _1285_/C _1061_/A vdd gnd OAI21X1
X_1128_ _888_/B _974_/B _1416_/C vdd gnd NAND2X1
X_908_ _908_/A _911_/D _908_/C _909_/B vdd gnd OAI21X1
X_839_ _858_/A _854_/B _859_/A vdd gnd NAND2X1
X_1462_ _1606_/Q _844_/C _1462_/C _1463_/C vdd gnd NAND3X1
X_1531_ _962_/A _903_/B _903_/C _1532_/B vdd gnd NOR3X1
X_1600_ _1600_/D _1653_/CLK _856_/A vdd gnd DFFPOSX1
X_1393_ _1449_/A _850_/B _1633_/Q _1395_/A vdd gnd OAI21X1
X_1445_ _1445_/A _1467_/B _1445_/C _1643_/D vdd gnd AOI21X1
X_1514_ _934_/A _1520_/B _1514_/C _1515_/B vdd gnd NOR3X1
X_1376_ _1376_/A _1376_/B _1377_/B vdd gnd NOR2X1
X_1092_ _1571_/Q _946_/B _946_/C _1569_/Q _1093_/B vdd gnd AOI22X1
X_1161_ _1273_/A _1273_/B _1520_/C _1162_/B vdd gnd NOR3X1
X_1230_ _1230_/A _1230_/B _963_/C _1232_/A vdd gnd OAI21X1
XBUFX2_insert6 _896_/Y _1274_/C vdd gnd BUFX2
X_1428_ _1434_/A _857_/C _1602_/Q _1430_/A vdd gnd OAI21X1
X_1359_ _1544_/Q _1436_/B _860_/A _1360_/C vdd gnd OAI21X1
X_941_ _941_/A _941_/B _941_/C _945_/A vdd gnd AOI21X1
X_872_ _892_/A _948_/C _891_/A _961_/C vdd gnd NAND3X1
XBUFX2_insert90 _1186_/Y _1366_/B vdd gnd BUFX2
X_1213_ _1652_/Q _911_/B _1257_/C _911_/D _1214_/A vdd gnd AOI22X1
X_1075_ _931_/A _973_/B _1075_/C _1078_/A vdd gnd AOI21X1
X_1144_ _1303_/C _1342_/B _986_/B _1332_/B vdd gnd NAND3X1
X_924_ _924_/A _944_/B _962_/C _925_/B vdd gnd NOR3X1
X_786_ _787_/Y _853_/Y gnd _786_/Y vdd gnd AOI21X1
X_855_ _857_/A _857_/B _855_/Y vdd gnd NOR2X1
XCLKBUF1_insert35 clk _1653_/CLK vdd gnd CLKBUF1
X_1058_ _874_/A _903_/B _1519_/A _1059_/B vdd gnd NOR3X1
X_1127_ _1127_/A _1127_/B _1517_/C _1559_/D vdd gnd AOI21X1
X_838_ _856_/A _854_/B vdd gnd INVX1
X_907_ _907_/A _911_/D vdd gnd INVX1
X_769_ _793_/B _772_/Y _769_/Y vdd gnd NAND2X1
X_1392_ _1392_/A _1392_/B _1392_/C _1633_/D vdd gnd AOI21X1
X_1461_ _859_/A _844_/B _1462_/C vdd gnd OR2X2
X_1530_ _1530_/A _1530_/B _1530_/C _1532_/A vdd gnd AOI21X1
X_1375_ _829_/A _981_/A _1376_/A vdd gnd NOR2X1
X_1444_ _1643_/Q _1467_/B _1466_/C _1445_/C vdd gnd OAI21X1
X_1513_ _1519_/A _1513_/B _1513_/C _1515_/A vdd gnd AOI21X1
X_1091_ _945_/C _1091_/B _1093_/A vdd gnd NAND2X1
X_1160_ _1273_/C _1519_/B _1160_/C _1162_/A vdd gnd AOI21X1
XBUFX2_insert7 _848_/Y _850_/B vdd gnd BUFX2
X_1358_ _1449_/A _1434_/B _1548_/Q _1360_/A vdd gnd OAI21X1
X_1427_ _1427_/A _1427_/B _1427_/C _1570_/D vdd gnd AOI21X1
X_1289_ _1289_/A _1289_/B _1289_/C _1291_/A vdd gnd AOI21X1
X_871_ _973_/B _871_/Y vdd gnd INVX8
X_940_ _990_/A _942_/A _941_/A vdd gnd NOR2X1
XBUFX2_insert91 _1186_/Y _1450_/B vdd gnd BUFX2
XBUFX2_insert80 _880_/Y _1514_/C vdd gnd BUFX2
X_1212_ _1650_/Q _909_/B _1214_/B vdd gnd NAND2X1
X_1074_ _1573_/Q _1075_/C vdd gnd INVX1
X_1143_ _985_/B _1195_/C _1342_/B vdd gnd NAND2X1
X_854_ _854_/A _854_/B _857_/A vdd gnd NAND2X1
X_923_ cmd_b _923_/B _961_/C _924_/A vdd gnd NAND3X1
X_785_ _794_/Y _793_/Y _786_/Y _785_/Y vdd gnd NAND3X1
XCLKBUF1_insert36 clk _1654_/CLK vdd gnd CLKBUF1
X_1126_ _1561_/Q _1522_/B _1522_/C _1559_/Q _1127_/B vdd gnd AOI22X1
X_1057_ _1289_/A _1289_/B _1057_/C _1059_/A vdd gnd AOI21X1
X_768_ _772_/Y _774_/Y _769_/Y _768_/Y vdd gnd OAI21X1
X_837_ _850_/A _849_/A vdd gnd INVX1
X_906_ _906_/A _906_/B _912_/C _906_/Y vdd gnd AOI21X1
X_1109_ _1498_/A _1498_/B _1109_/C _1112_/A vdd gnd AOI21X1
X_1391_ _1633_/Q _1392_/B _1435_/C _1392_/C vdd gnd OAI21X1
X_1460_ _1460_/A _1460_/B _1464_/B _1463_/B vdd gnd OAI21X1
X_1589_ _1589_/D _1639_/CLK _1589_/Q vdd gnd DFFPOSX1
X_1512_ _1639_/Q _1513_/C vdd gnd INVX1
X_1374_ _1379_/A _1379_/B _829_/A _1378_/B vdd gnd OAI21X1
X_1443_ _1465_/B _1455_/B _1651_/Q _1445_/A vdd gnd OAI21X1
X_1090_ _1481_/A _1234_/B _1090_/C _1091_/B vdd gnd OAI21X1
XBUFX2_insert8 _848_/Y _1455_/B vdd gnd BUFX2
X_1288_ _1622_/Q _1289_/C vdd gnd INVX1
X_1357_ _1357_/A _1436_/B _1357_/C _1548_/D vdd gnd AOI21X1
X_1426_ _957_/A _1427_/A _1426_/C _1427_/C vdd gnd OAI21X1
X_870_ _957_/A _958_/A _939_/C _873_/C vdd gnd NOR3X1
XBUFX2_insert81 _880_/Y _1481_/A vdd gnd BUFX2
XBUFX2_insert70 _921_/Y _962_/C vdd gnd BUFX2
X_999_ _999_/A _999_/B _999_/C _999_/Y vdd gnd AOI21X1
X_1142_ _1142_/A _1142_/B _1142_/C _1555_/D vdd gnd AOI21X1
X_1211_ _1211_/A _1211_/B _895_/C _1652_/D vdd gnd AOI21X1
X_1073_ _1073_/A _1073_/B _895_/C _1575_/D vdd gnd AOI21X1
X_1409_ _1602_/Q _1430_/B _1466_/C _1410_/C vdd gnd OAI21X1
X_784_ _795_/Y _800_/Y _784_/Y vdd gnd NAND2X1
X_853_ _854_/B _857_/B _859_/A _859_/D _853_/Y vdd gnd OAI22X1
X_922_ _990_/C _923_/B vdd gnd INVX1
XCLKBUF1_insert37 clk _1639_/CLK vdd gnd CLKBUF1
X_1125_ _1125_/A _1125_/B _1274_/C _1127_/A vdd gnd OAI21X1
X_1056_ _892_/B _1289_/A vdd gnd INVX1
X_905_ _905_/A _911_/B _905_/C _911_/A _906_/B vdd gnd AOI22X1
X_767_ _768_/Y _767_/CLK _793_/B vdd gnd DFFPOSX1
X_836_ _836_/A _836_/Y vdd gnd INVX1
X_1039_ _1039_/A _1039_/B _1523_/C _1585_/D vdd gnd AOI21X1
X_1108_ _1563_/Q _1109_/C vdd gnd INVX1
X_1390_ _1390_/A _1434_/B _1637_/Q _1392_/A vdd gnd OAI21X1
X_819_ _846_/A _846_/C _858_/C vdd gnd NAND2X1
X_1588_ _1588_/D _1655_/CLK _977_/B vdd gnd DFFPOSX1
X_1442_ _1442_/A _1467_/B _1442_/C _1651_/D vdd gnd AOI21X1
X_1511_ _1511_/A _1511_/B _1517_/C _1550_/D vdd gnd AOI21X1
X_1373_ _1373_/A _1373_/B _999_/C _1653_/D vdd gnd AOI21X1
XBUFX2_insert9 _848_/Y _1434_/B vdd gnd BUFX2
X_1425_ _929_/C _995_/A _1425_/C _997_/A _1427_/B vdd gnd AOI22X1
X_1287_ _1287_/A _1287_/B _1528_/C _1624_/D vdd gnd AOI21X1
X_1356_ _1548_/Q _1436_/B _1435_/C _1357_/C vdd gnd OAI21X1
XBUFX2_insert60 _1303_/Y _1449_/A vdd gnd BUFX2
XBUFX2_insert82 _880_/Y _1499_/C vdd gnd BUFX2
XBUFX2_insert71 _921_/Y _1519_/A vdd gnd BUFX2
X_998_ _998_/A _998_/B _998_/C _999_/A vdd gnd NAND3X1
X_1072_ _1577_/Q _985_/B _1301_/C _805_/A _1073_/A vdd gnd AOI22X1
X_1141_ _1426_/C _1141_/B _1142_/C vdd gnd NAND2X1
X_1210_ _1654_/Q _1533_/B _889_/A _1652_/Q _1211_/B vdd gnd AOI22X1
X_1408_ _1434_/A _857_/C _1611_/Q _1410_/A vdd gnd OAI21X1
X_1339_ _1572_/Q _1392_/B _1435_/C _1340_/C vdd gnd OAI21X1
X_921_ _961_/C _921_/B _921_/Y vdd gnd NAND2X1
X_783_ _801_/Y _806_/Y _799_/Y _783_/Y vdd gnd AOI21X1
X_852_ _854_/B _857_/B _852_/Y vdd gnd NOR2X1
XCLKBUF1_insert38 clk _1635_/CLK vdd gnd CLKBUF1
X_1055_ _1579_/Q _1057_/C vdd gnd INVX1
X_1124_ _1261_/A _1273_/B _1520_/C _1125_/B vdd gnd NOR3X1
X_904_ _904_/A _904_/B _910_/A _906_/A vdd gnd OAI21X1
X_766_ _986_/A debug_state[0] vdd gnd BUFX2
X_835_ _835_/A _835_/B _835_/C _836_/A vdd gnd NAND3X1
X_1038_ _1587_/Q _1522_/B _1280_/C _1585_/Q _1039_/B vdd gnd AOI22X1
X_1107_ _1107_/A _1107_/B _965_/C _1565_/D vdd gnd AOI21X1
X_818_ _856_/A _858_/A _846_/C vdd gnd NOR2X1
X_1587_ _1587_/D _1639_/CLK _1587_/Q vdd gnd DFFPOSX1
X_1441_ _1651_/Q _1467_/B _1466_/C _1442_/C vdd gnd OAI21X1
X_1510_ _1582_/Q _1510_/B _1522_/C _1550_/Q _1511_/B vdd gnd AOI22X1
X_1372_ _997_/C _1372_/B _1386_/A _1373_/A vdd gnd NAND3X1
X_1639_ _1639_/D _1639_/CLK _1639_/Q vdd gnd DFFPOSX1
X_1355_ _1390_/A _1434_/B _1552_/Q _1357_/A vdd gnd OAI21X1
X_1424_ _1424_/A _1425_/C vdd gnd INVX1
X_1286_ _1626_/Q _1334_/A _905_/C _1624_/Q _1287_/B vdd gnd AOI22X1
XBUFX2_insert50 _810_/Y _964_/B vdd gnd BUFX2
XBUFX2_insert61 _1303_/Y _1434_/A vdd gnd BUFX2
XBUFX2_insert83 _880_/Y _1520_/C vdd gnd BUFX2
XBUFX2_insert72 _921_/Y _1527_/D vdd gnd BUFX2
X_997_ _997_/A _997_/B _997_/C _998_/B vdd gnd AOI21X1
X_1071_ _1300_/C _1301_/C vdd gnd INVX1
X_1140_ _975_/A _1195_/C _975_/B _1141_/B vdd gnd OAI21X1
X_1338_ _1452_/A _1387_/B _1608_/Q _1340_/A vdd gnd OAI21X1
X_1407_ _1407_/A _1435_/B _1407_/C _1611_/D vdd gnd AOI21X1
X_1269_ _1632_/Q _1522_/B _1522_/C _1630_/Q _1270_/B vdd gnd AOI22X1
X_851_ _851_/A _857_/B vdd gnd INVX2
X_920_ _920_/A _920_/B _973_/B _921_/B vdd gnd OAI21X1
X_782_ _858_/Y _791_/Y _789_/Y _782_/Y vdd gnd NAND3X1
XCLKBUF1_insert39 clk _1637_/CLK vdd gnd CLKBUF1
X_1054_ _1054_/A _1054_/B _1523_/C _1581_/D vdd gnd AOI21X1
X_1123_ cmd_a _923_/B _961_/C _1261_/A vdd gnd NAND3X1
X_834_ _977_/A _977_/B _835_/C vdd gnd NOR2X1
X_903_ _903_/A _903_/B _903_/C _904_/B vdd gnd NOR3X1
X_765_ _887_/A debug_state[1] vdd gnd BUFX2
X_1106_ _1567_/Q _1510_/B _1501_/C _1565_/Q _1107_/B vdd gnd AOI22X1
X_1037_ _1037_/A _1037_/B _1274_/C _1039_/A vdd gnd OAI21X1
X_817_ _856_/A _858_/A _847_/A vdd gnd NAND2X1
X_1586_ _1586_/D _1653_/CLK _958_/A vdd gnd DFFPOSX1
X_1655_ _1655_/D _1655_/CLK _1655_/Q vdd gnd DFFPOSX1
X_1371_ _984_/C _1371_/B _1372_/B vdd gnd NOR2X1
X_1440_ _1465_/B _1455_/B _1538_/Q _1442_/A vdd gnd OAI21X1
X_1638_ _1638_/D _1647_/CLK _1638_/Q vdd gnd DFFPOSX1
X_1569_ _1569_/D _1644_/CLK _1569_/Q vdd gnd DFFPOSX1
X_1285_ _1285_/A _1285_/B _1285_/C _1287_/A vdd gnd OAI21X1
X_1354_ _1354_/A _1436_/B _1354_/C _1552_/D vdd gnd AOI21X1
X_1423_ _1427_/A _1423_/B _1423_/C _1578_/D vdd gnd AOI21X1
XBUFX2_insert51 _810_/Y _1334_/A vdd gnd BUFX2
XBUFX2_insert62 _888_/Y _964_/C vdd gnd BUFX2
XBUFX2_insert84 _1186_/Y _1467_/B vdd gnd BUFX2
XBUFX2_insert73 _921_/Y _1273_/C vdd gnd BUFX2
X_996_ cmd_last _997_/A vdd gnd INVX1
X_1070_ cmd_b _1319_/B _1300_/C _1073_/B vdd gnd NAND3X1
X_1268_ _1268_/A _1268_/B _1274_/C _1270_/A vdd gnd OAI21X1
X_1337_ _1337_/A _976_/A _1337_/C _1576_/D vdd gnd AOI21X1
X_1406_ _1611_/Q _1435_/B _860_/A _1407_/C vdd gnd OAI21X1
X_1199_ _1199_/A _985_/B _1199_/C _1535_/D vdd gnd AOI21X1
X_781_ _782_/Y _781_/Y vdd gnd INVX1
X_850_ _850_/A _850_/B _850_/Y vdd gnd NOR2X1
X_979_ _979_/A _980_/B vdd gnd INVX1
X_1122_ _1273_/C _1508_/B _1122_/C _1125_/A vdd gnd AOI21X1
X_1053_ _1583_/Q _1334_/A _1280_/C _1581_/Q _1054_/B vdd gnd AOI22X1
X_764_ gnd debug_state[2] vdd gnd BUFX2
X_833_ _969_/A _968_/A _835_/B vdd gnd NOR2X1
X_902_ cmd_b _961_/C _902_/C _903_/A vdd gnd NAND3X1
X_1105_ _1105_/A _1105_/B _1500_/C _1107_/A vdd gnd OAI21X1
X_1036_ _944_/A _1520_/B _1527_/D _1037_/B vdd gnd NOR3X1
X_816_ _854_/A _858_/A vdd gnd INVX1
X_1654_ _1654_/D _1654_/CLK _1654_/Q vdd gnd DFFPOSX1
X_1585_ _1585_/D _1655_/CLK _1585_/Q vdd gnd DFFPOSX1
X_1019_ _1589_/Q _1021_/C vdd gnd INVX1
X_1370_ _829_/B _1376_/B _1371_/B vdd gnd NOR2X1
X_1637_ _1637_/D _1637_/CLK _1637_/Q vdd gnd DFFPOSX1
X_1499_ _903_/A _1499_/B _1499_/C _1500_/B vdd gnd NOR3X1
X_1568_ _1568_/D _767_/CLK _826_/A vdd gnd DFFPOSX1
X_1422_ _957_/B _1427_/A _1426_/C _1423_/C vdd gnd OAI21X1
X_1284_ _1284_/A _903_/B _1527_/D _1285_/B vdd gnd NOR3X1
X_1353_ _1552_/Q _1436_/B _1365_/C _1354_/C vdd gnd OAI21X1
XBUFX2_insert30 _869_/Y _903_/B vdd gnd BUFX2
XBUFX2_insert52 _810_/Y _946_/B vdd gnd BUFX2
XBUFX2_insert63 _888_/Y _1501_/C vdd gnd BUFX2
XBUFX2_insert85 _1186_/Y _1454_/B vdd gnd BUFX2
XBUFX2_insert74 _871_/Y _990_/B vdd gnd BUFX2
X_995_ _995_/A _995_/B _995_/C _998_/C vdd gnd AOI21X1
X_1405_ _1434_/A _857_/C _1617_/Q _1407_/A vdd gnd OAI21X1
X_1198_ _850_/A _985_/B _1466_/C _1199_/C vdd gnd OAI21X1
X_1267_ _1267_/A _1273_/B _1273_/C _1268_/B vdd gnd NOR3X1
X_1336_ _976_/A _1533_/B _860_/A _1337_/C vdd gnd OAI21X1