* XSpice netlist created from SPICE and liberty sources by spi2xspice.py
*SPICE netlist created from verilog structural netlist module my_mcu_top by vlog2Spice (qflow)
** Start of included library /usr/local/share/qflow/tech/etri050/etri050_stdcells.sp
* NGSPICE file created from khu_etri050_stdcells.ext - technology: scmos
** End of included library /usr/local/share/qflow/tech/etri050/etri050_stdcells.sp
.subckt my_mcu_top a_vdd a_gnd a_i_clk_fast a_i_clk_sys_ext a_i_rst_n a_o_rf_sync a_o_rf_sck a_o_rf_mosi a_i_rf_miso a_o_mem_sync a_o_mem_sck a_o_mem_mosi a_i_mem_miso
ABUFX2_insert69 [mem_ibus_ack] mem_ibus_ack_bF$buf0 d_lut_BUFX2
ABUFX2_insert68 [mem_ibus_ack] mem_ibus_ack_bF$buf1 d_lut_BUFX2
ABUFX2_insert67 [mem_ibus_ack] mem_ibus_ack_bF$buf2 d_lut_BUFX2
ABUFX2_insert66 [mem_ibus_ack] mem_ibus_ack_bF$buf3 d_lut_BUFX2
ABUFX2_insert65 [mem_ibus_ack] mem_ibus_ack_bF$buf4 d_lut_BUFX2
ABUFX2_insert64 [mem_ibus_ack] mem_ibus_ack_bF$buf5 d_lut_BUFX2
ABUFX2_insert63 [mem_ibus_ack] mem_ibus_ack_bF$buf6 d_lut_BUFX2
ABUFX2_insert62 [mem_ibus_ack] mem_ibus_ack_bF$buf7 d_lut_BUFX2
ABUFX2_insert61 [_542_] _542__bF$buf0 d_lut_BUFX2
ABUFX2_insert60 [_542_] _542__bF$buf1 d_lut_BUFX2
ABUFX2_insert59 [_542_] _542__bF$buf2 d_lut_BUFX2
ABUFX2_insert58 [_542_] _542__bF$buf3 d_lut_BUFX2
ABUFX2_insert57 [_542_] _542__bF$buf4 d_lut_BUFX2
ACLKBUF1_insert56 [i_clk_fast] i_clk_fast_bF$buf0 d_lut_CLKBUF1
ACLKBUF1_insert55 [i_clk_fast] i_clk_fast_bF$buf1 d_lut_CLKBUF1
ACLKBUF1_insert54 [i_clk_fast] i_clk_fast_bF$buf2 d_lut_CLKBUF1
ACLKBUF1_insert53 [i_clk_fast] i_clk_fast_bF$buf3 d_lut_CLKBUF1
ACLKBUF1_insert52 [i_clk_fast] i_clk_fast_bF$buf4 d_lut_CLKBUF1
ACLKBUF1_insert51 [i_clk_fast] i_clk_fast_bF$buf5 d_lut_CLKBUF1
ACLKBUF1_insert50 [i_clk_fast] i_clk_fast_bF$buf6 d_lut_CLKBUF1
ACLKBUF1_insert49 [i_clk_fast] i_clk_fast_bF$buf7 d_lut_CLKBUF1
ACLKBUF1_insert48 [i_clk_sys_ext] i_clk_sys_ext_bF$buf0 d_lut_CLKBUF1
ACLKBUF1_insert47 [i_clk_sys_ext] i_clk_sys_ext_bF$buf1 d_lut_CLKBUF1
ACLKBUF1_insert46 [i_clk_sys_ext] i_clk_sys_ext_bF$buf2 d_lut_CLKBUF1
ACLKBUF1_insert45 [i_clk_sys_ext] i_clk_sys_ext_bF$buf3 d_lut_CLKBUF1
ACLKBUF1_insert44 [i_clk_sys_ext] i_clk_sys_ext_bF$buf4 d_lut_CLKBUF1
ACLKBUF1_insert43 [i_clk_sys_ext] i_clk_sys_ext_bF$buf5 d_lut_CLKBUF1
ACLKBUF1_insert42 [i_clk_sys_ext] i_clk_sys_ext_bF$buf6 d_lut_CLKBUF1
ACLKBUF1_insert41 [i_clk_sys_ext] i_clk_sys_ext_bF$buf7 d_lut_CLKBUF1
ACLKBUF1_insert40 [i_clk_sys_ext] i_clk_sys_ext_bF$buf8 d_lut_CLKBUF1
ACLKBUF1_insert39 [i_clk_sys_ext] i_clk_sys_ext_bF$buf9 d_lut_CLKBUF1
ACLKBUF1_insert38 [i_clk_sys_ext] i_clk_sys_ext_bF$buf10 d_lut_CLKBUF1
ACLKBUF1_insert37 [i_clk_sys_ext] i_clk_sys_ext_bF$buf11 d_lut_CLKBUF1
ACLKBUF1_insert36 [i_clk_sys_ext] i_clk_sys_ext_bF$buf12 d_lut_CLKBUF1
ACLKBUF1_insert35 [i_clk_sys_ext] i_clk_sys_ext_bF$buf13 d_lut_CLKBUF1
ABUFX2_insert34 [_543_] _543__bF$buf0 d_lut_BUFX2
ABUFX2_insert33 [_543_] _543__bF$buf1 d_lut_BUFX2
ABUFX2_insert32 [_543_] _543__bF$buf2 d_lut_BUFX2
ABUFX2_insert31 [_543_] _543__bF$buf3 d_lut_BUFX2
ABUFX2_insert30 [_543_] _543__bF$buf4 d_lut_BUFX2
ABUFX2_insert29 [_543_] _543__bF$buf5 d_lut_BUFX2
ABUFX2_insert28 [_925_] _925__bF$buf0 d_lut_BUFX2
ABUFX2_insert27 [_925_] _925__bF$buf1 d_lut_BUFX2
ABUFX2_insert26 [_925_] _925__bF$buf2 d_lut_BUFX2
ABUFX2_insert25 [_925_] _925__bF$buf3 d_lut_BUFX2
ABUFX2_insert24 [_393_] _393__bF$buf0 d_lut_BUFX2
ABUFX2_insert23 [_393_] _393__bF$buf1 d_lut_BUFX2
ABUFX2_insert22 [_393_] _393__bF$buf2 d_lut_BUFX2
ABUFX2_insert21 [_393_] _393__bF$buf3 d_lut_BUFX2
ABUFX2_insert20 [_393_] _393__bF$buf4 d_lut_BUFX2
ABUFX2_insert19 [i_rst_n] i_rst_n_bF$buf0 d_lut_BUFX2
ABUFX2_insert18 [i_rst_n] i_rst_n_bF$buf1 d_lut_BUFX2
ABUFX2_insert17 [i_rst_n] i_rst_n_bF$buf2 d_lut_BUFX2
ABUFX2_insert16 [i_rst_n] i_rst_n_bF$buf3 d_lut_BUFX2
ABUFX2_insert15 [_426_] _426__bF$buf0 d_lut_BUFX2
ABUFX2_insert14 [_426_] _426__bF$buf1 d_lut_BUFX2
ABUFX2_insert13 [_426_] _426__bF$buf2 d_lut_BUFX2
ABUFX2_insert12 [_426_] _426__bF$buf3 d_lut_BUFX2
ABUFX2_insert11 [_426_] _426__bF$buf4 d_lut_BUFX2
ABUFX2_insert10 [_943_] _943__bF$buf0 d_lut_BUFX2
ABUFX2_insert9 [_943_] _943__bF$buf1 d_lut_BUFX2
ABUFX2_insert8 [_943_] _943__bF$buf2 d_lut_BUFX2
ABUFX2_insert7 [_943_] _943__bF$buf3 d_lut_BUFX2
ABUFX2_insert6 [_943_] _943__bF$buf4 d_lut_BUFX2
ABUFX2_insert5 [_873_] _873__bF$buf0 d_lut_BUFX2
ABUFX2_insert4 [_873_] _873__bF$buf1 d_lut_BUFX2
ABUFX2_insert3 [_873_] _873__bF$buf2 d_lut_BUFX2
ABUFX2_insert2 [_873_] _873__bF$buf3 d_lut_BUFX2
ABUFX2_insert1 [_873_] _873__bF$buf4 d_lut_BUFX2
ABUFX2_insert0 [_873_] _873__bF$buf5 d_lut_BUFX2
A_1150_ [_1119_] o_rf_sync d_lut_BUFX2
A_1151_ [_1118_] o_rf_sck d_lut_BUFX2
A_1152_ [_1117_] o_rf_mosi d_lut_BUFX2
A_1153_ [_1116_] o_mem_sync d_lut_BUFX2
A_1154_ [_1115_] o_mem_sck d_lut_BUFX2
A_1155_ [_0_] o_mem_mosi d_lut_BUFX2
A_1156_ [\u_mem_serial.clk_sys_prev\ _557_ \u_mem_serial.state\_1_] _535_ d_lut_OAI21X1
A_1157_ [\u_mem_serial.state\_0_ _535_ _554_] _534_ d_lut_OAI21X1
A_1158_ [_534_ _536_] _533_ d_lut_NOR2X1
A_1159_ [_560_ _533_] _532_ d_lut_NAND2X1
A_1160_ [_537_ _532_] _849_ d_lut_NAND2X1
A_1161_ [\u_mem_serial.shift_reg\_13_] _531_ d_lut_INVX1
A_1162_ [\u_mem_serial.shift_reg\_12_] _530_ d_lut_INVX1
A_1163_ [_553_] _529_ d_lut_INVX2
A_1164_ [_545_ _542__bF$buf4 _529_] _528_ d_lut_NAND3X1
A_1165_ [_531_ _543__bF$buf5 _530_ _528_] _848_ d_lut_OAI22X1
A_1166_ [_530_ _543__bF$buf4 _563_ _528_] _847_ d_lut_OAI22X1
A_1167_ [\u_mem_serial.shift_reg\_9_] _527_ d_lut_INVX1
A_1168_ [_527_ _543__bF$buf3 _540_ _528_] _846_ d_lut_OAI22X1
A_1169_ [\u_mem_serial.shift_reg\_19_] _526_ d_lut_INVX1
A_1170_ [\u_mem_serial.shift_reg\_18_] _525_ d_lut_INVX1
A_1171_ [_525_ _542__bF$buf3] _524_ d_lut_NAND2X1
A_1172_ [\u_cpu.bufreg.data\_3_] _523_ d_lut_INVX1
A_1173_ [\u_cpu.ctrl.o_ibus_adr\_3_] _522_ d_lut_INVX1
A_1174_ [_523_ _522_ _559_] _521_ d_lut_MUX2X1
A_1175_ [_542__bF$buf2 _521_ _524_] _520_ d_lut_OAI21X1
A_1176_ [_520_ _526_ _543__bF$buf2] _845_ d_lut_MUX2X1
A_1177_ [\u_rf_if.rtrig1\] _519_ d_lut_INVX1
A_1178_ [\u_rf_if.wen0_r\] _518_ d_lut_INVX1
A_1179_ [_519_ _518_] _517_ d_lut_NOR2X1
A_1180_ [ren _517_ i_rst_n_bF$buf3] _516_ d_lut_OAI21X1
A_1181_ [\u_rf_if.tx_state\_1_ \u_rf_if.tx_state\_0_] _515_ d_lut_NOR2X1
A_1182_ [_515_] _514_ d_lut_INVX2
A_1183_ [\u_rf_if.tx_state\_2_ _514_] _513_ d_lut_NOR2X1
A_1184_ [_513_] _512_ d_lut_INVX2
A_1185_ [\u_rf_if.tx_state\_3_ \u_rf_if.tx_state\_4_] _511_ d_lut_NOR2X1
A_1186_ [_511_] _510_ d_lut_INVX1
A_1187_ [_510_ _512_ \u_rf_if.launch_pending\] _509_ d_lut_OAI21X1
A_1188_ [_516_ _509_] _844_ d_lut_NOR2X1
A_1189_ [mem_ibus_ack_bF$buf7] _508_ d_lut_INVX4
A_1190_ [current_stream_rs2_hint _508_] _507_ d_lut_NAND2X1
A_1191_ [\u_mem_serial.shift_reg\_5_] _506_ d_lut_INVX1
A_1192_ [_506_ _508_] _505_ d_lut_NOR2X1
A_1193_ [\u_mem_serial.shift_reg\_0_] _504_ d_lut_INVX1
A_1194_ [\u_mem_serial.shift_reg\_2_ _504_] _503_ d_lut_NOR2X1
A_1195_ [\u_mem_serial.shift_reg\_3_] _502_ d_lut_INVX1
A_1196_ [\u_mem_serial.shift_reg\_1_ _502_] _501_ d_lut_NAND2X1
A_1197_ [\u_mem_serial.shift_reg\_4_ \u_mem_serial.shift_reg\_6_ _501_] _500_ d_lut_AOI21X1
A_1198_ [_505_ _503_ _500_] _499_ d_lut_NAND3X1
A_1199_ [_507_ _499_] \u_rf_if.i_stream_rs2_en\ d_lut_NAND2X1
A_1200_ [\u_rf_if.rcnt\_0_] _498_ d_lut_INVX1
A_1201_ [\u_cpu.state.init_done\] _497_ d_lut_INVX1
A_1202_ [\u_cpu.bufreg.i_right_shift_op\] _496_ d_lut_INVX2
A_1203_ [\u_cpu.decode.co_mem_word\] _495_ d_lut_INVX2
A_1204_ [_496_ _495_] _494_ d_lut_NOR2X1
A_1205_ [\u_cpu.branch_op\ \u_cpu.decode.opcode\_0_] _493_ d_lut_NOR2X1
A_1206_ [\u_cpu.bne_or_bge\ \u_cpu.decode.co_mem_word\ _493_] _492_ d_lut_OAI21X1
A_1207_ [_494_ _492_ \u_cpu.decode.opcode\_2_] _491_ d_lut_OAI21X1
A_1208_ [_497_ _491_] _490_ d_lut_NAND2X1
A_1209_ [\u_cpu.bufreg2.i_bytecnt\_1_] _489_ d_lut_INVX1
A_1210_ [\u_cpu.bufreg2.i_bytecnt\_0_] _488_ d_lut_INVX1
A_1211_ [\u_cpu.state.cnt_r\_3_] _487_ d_lut_INVX1
A_1212_ [\u_cpu.state.o_cnt\_2_] _486_ d_lut_INVX1
A_1213_ [_487_ _486_] _485_ d_lut_NOR2X1
A_1214_ [_485_] _484_ d_lut_INVX1
A_1215_ [_488_ _484_] _483_ d_lut_NOR2X1
A_1216_ [_483_] _482_ d_lut_INVX1
A_1217_ [_489_ _482_] _481_ d_lut_NOR2X1
A_1218_ [_481_] _480_ d_lut_INVX1
A_1219_ [_490_ _480_] _479_ d_lut_NOR2X1
A_1220_ [_479_] _478_ d_lut_INVX1
A_1221_ [\u_cpu.state.cnt_r\_2_] _477_ d_lut_INVX1
A_1222_ [\u_cpu.state.cnt_r\_0_ \u_cpu.state.cnt_r\_1_] _476_ d_lut_OR2X2
A_1223_ [\u_cpu.state.cnt_r\_3_ _476_] _475_ d_lut_NOR2X1
A_1224_ [_477_ _475_] _474_ d_lut_NAND2X1
A_1225_ [_474_] _473_ d_lut_INVX2
A_1226_ [\u_cpu.bufreg.i_right_shift_op\ _473_] _472_ d_lut_NAND2X1
A_1227_ [_497_ _472_ _478_] _471_ d_lut_OAI21X1
A_1228_ [\u_cpu.branch_op\] _470_ d_lut_INVX2
A_1229_ [\u_cpu.decode.opcode\_2_] _469_ d_lut_INVX2
A_1230_ [\u_cpu.decode.co_mem_word\ _469_] _468_ d_lut_NOR2X1
A_1231_ [\u_cpu.bufreg2.dhi\_6_] _467_ d_lut_INVX1
A_1232_ [_490_] _466_ d_lut_INVX1
A_1233_ [_496_ _480_ _466_] _465_ d_lut_OAI21X1
A_1234_ [_468_ _465_] _464_ d_lut_NAND2X1
A_1235_ [_464_] _463_ d_lut_INVX4
A_1236_ [\u_cpu.bufreg.i_shamt\_2_] _462_ d_lut_INVX1
A_1237_ [\u_cpu.bufreg.i_shamt\_0_ \u_cpu.bufreg.i_shamt\_1_] _461_ d_lut_NOR2X1
A_1238_ [_462_ _461_] _460_ d_lut_NAND2X1
A_1239_ [\u_cpu.bufreg2.dhi\_3_ _460_] _459_ d_lut_NOR2X1
A_1240_ [_459_] _458_ d_lut_INVX1
A_1241_ [\u_cpu.bufreg2.dhi\_4_ _458_] _457_ d_lut_NOR2X1
A_1242_ [\u_cpu.bufreg2.dhi\_5_ _457_] _456_ d_lut_NAND2X1
A_1243_ [\u_cpu.bufreg2.dhi\_5_] _455_ d_lut_INVX1
A_1244_ [\u_cpu.bufreg2.dhi\_4_ _458_ _455_] _454_ d_lut_OAI21X1
A_1245_ [_456_ _454_ _463_] _453_ d_lut_NAND3X1
A_1246_ [_467_ _463_ _453_] _452_ d_lut_OAI21X1
A_1247_ [_452_ _496_] _451_ d_lut_OR2X2
A_1248_ [\u_cpu.decode.opcode\_0_] _450_ d_lut_INVX2
A_1249_ [\u_cpu.decode.opcode\_2_ _450_] _449_ d_lut_NAND2X1
A_1250_ [\u_cpu.decode.co_mem_word\ _496_] _448_ d_lut_NAND2X1
A_1251_ [_449_ _448_] _447_ d_lut_NOR2X1
A_1252_ [_479_ _447_ _451_ _468_] _446_ d_lut_AOI22X1
A_1253_ [_470_ _478_ _446_] _445_ d_lut_OAI21X1
A_1254_ [_471_ _445_] _444_ d_lut_NAND2X1
A_1255_ [_444_] _443_ d_lut_INVX1
A_1256_ [mem_ibus_ack_bF$buf6 _443_] _442_ d_lut_NOR2X1
A_1257_ [_442_] _441_ d_lut_INVX1
A_1258_ [_498_ _441_] \u_rf_if.rtrig0\ d_lut_NOR2X1
A_1259_ [_510_ _512_] _440_ d_lut_NOR2X1
A_1260_ [\u_rf_if.req_seen\ _440_] _439_ d_lut_NOR2X1
A_1261_ [_516_ _439_] _841_ d_lut_NOR2X1
A_1262_ [\u_cpu.decode.opcode\_0_ _470_] _438_ d_lut_NAND2X1
A_1263_ [_469_ _438_] _437_ d_lut_NOR2X1
A_1264_ [_437_] _436_ d_lut_INVX1
A_1265_ [_488_ _489_] _435_ d_lut_NAND2X1
A_1266_ [\u_cpu.state.o_cnt\_2_ _435_] _434_ d_lut_NOR2X1
A_1267_ [\u_cpu.state.cnt_r\_0_ _434_] _433_ d_lut_NAND2X1
A_1268_ [\u_cpu.bufreg.data\_0_] _432_ d_lut_INVX1
A_1269_ [\u_cpu.state.init_done\ _470_ _473_] _431_ d_lut_AOI21X1
A_1270_ [_491_ _431_] _430_ d_lut_NAND2X1
A_1271_ [_468_] _429_ d_lut_INVX1
A_1272_ [_497_ _429_] _428_ d_lut_NOR2X1
A_1273_ [\u_cpu.bufreg.i_right_shift_op\ _452_ _428_] _427_ d_lut_OAI21X1
A_1274_ [_430_ _427_] _426_ d_lut_NAND2X1
A_1275_ [_426__bF$buf4] _425_ d_lut_INVX1
A_1276_ [_432_ _425_] _424_ d_lut_NOR2X1
A_1277_ [\u_cpu.decode.opcode\_1_] _423_ d_lut_INVX1
A_1278_ [_469_ _423_] _422_ d_lut_NAND2X1
A_1279_ [\u_cpu.decode.opcode\_0_ _422_] _421_ d_lut_NOR2X1
A_1280_ [\u_cpu.bufreg2.i_op_b_sel\ _421_] _420_ d_lut_NAND2X1
A_1281_ [rf_read_reg1_to_if_0_ rf_wreg0_to_if_0_ _420_] _419_ d_lut_MUX2X1
A_1282_ [_470_ _469_] _418_ d_lut_NOR2X1
A_1283_ [_418_] _417_ d_lut_INVX1
A_1284_ [_496_ _417_ \u_cpu.immdec.gen_immdec_w_eq_1.imm31\] _416_ d_lut_OAI21X1
A_1285_ [_416_] _415_ d_lut_INVX1
A_1286_ [_415_ _481_] _414_ d_lut_NAND2X1
A_1287_ [_481_ _419_ _414_] _413_ d_lut_OAI21X1
A_1288_ [_488_ _486_ _489_] _412_ d_lut_OAI21X1
A_1289_ [_437_ _412_] _411_ d_lut_AND2X2
A_1290_ [_413_ _411_ _424_ _436_] _410_ d_lut_AOI22X1
A_1291_ [\u_cpu.ctrl.pc_plus_offset_cy_r_w\_0_] _409_ d_lut_INVX1
A_1292_ [\u_cpu.decode.co_ebreak\] _408_ d_lut_INVX1
A_1293_ [_450_ _423_ _408_ _417_] _407_ d_lut_OAI22X1
A_1294_ [\u_cpu.branch_op\ \u_cpu.bufreg2.i_op_b_sel\] _406_ d_lut_NOR2X1
A_1295_ [_421_ _406_] _405_ d_lut_OR2X2
A_1296_ [_407_ _405_ \u_cpu.ctrl.pc\_0_] _404_ d_lut_OAI21X1
A_1297_ [_404_ _409_] _403_ d_lut_OR2X2
A_1298_ [_409_ _404_] _402_ d_lut_NAND2X1
A_1299_ [_402_ _403_] _401_ d_lut_NAND2X1
A_1300_ [_410_ _401_] _400_ d_lut_OR2X2
A_1301_ [_401_ _410_] _399_ d_lut_NAND2X1
A_1302_ [_433_ _399_ _400_] _398_ d_lut_NAND3X1
A_1303_ [_436_ _398_] _397_ d_lut_NOR2X1
A_1304_ [_493_ \u_cpu.decode.opcode\_2_] _396_ d_lut_AND2X2
A_1305_ [\u_cpu.bufreg.i_right_shift_op\ \u_cpu.bne_or_bge\] _395_ d_lut_NOR2X1
A_1306_ [_495_ _395_] _394_ d_lut_NAND2X1
A_1307_ [\u_rf_if.stream_active\] _393_ d_lut_INVX8
A_1308_ [\u_rf_if.read_buf0\_0_] _392_ d_lut_INVX1
A_1309_ [_393__bF$buf4 _392_] _391_ d_lut_NOR2X1
A_1310_ [\u_cpu.alu.add_cy_r\_0_ _391_] _390_ d_lut_NAND2X1
A_1311_ [\u_cpu.alu.add_cy_r\] _389_ d_lut_INVX1
A_1312_ [_393__bF$buf3 _392_ _389_] _388_ d_lut_OAI21X1
A_1313_ [_388_ _390_] _387_ d_lut_NAND2X1
A_1314_ [\u_cpu.bufreg2.i_op_b_sel\] _386_ d_lut_INVX1
A_1315_ [\u_cpu.bufreg.i_sh_signed\] _385_ d_lut_INVX1
A_1316_ [\u_cpu.bne_or_bge\ \u_cpu.decode.co_mem_word\] _384_ d_lut_NOR2X1
A_1317_ [_386_ _385_ _384_] _383_ d_lut_OAI21X1
A_1318_ [\u_cpu.branch_op\ _383_] _382_ d_lut_NOR2X1
A_1319_ [\u_rf_if.read_buf1\_0_ \u_rf_if.i_stream_rs2_en\ \u_rf_if.stream_active\] _381_ d_lut_OAI21X1
A_1320_ [\u_rf_if.i_stream_rs2_en\] _380_ d_lut_INVX1
A_1321_ [\u_rf_if.rs2_stream_buf\_0_ _380_ \u_cpu.bufreg2.i_op_b_sel\] _379_ d_lut_OAI21X1
A_1322_ [_386_ _413_] _378_ d_lut_NAND2X1
A_1323_ [_381_ _379_ _378_] _377_ d_lut_OAI21X1
A_1324_ [_377_] _376_ d_lut_INVX1
A_1325_ [_376_ _382_] _375_ d_lut_AND2X2
A_1326_ [\u_cpu.branch_op\ _383_ _377_] _374_ d_lut_OAI21X1
A_1327_ [_374_] _373_ d_lut_INVX1
A_1328_ [_373_ _375_] _372_ d_lut_NOR2X1
A_1329_ [_372_] _371_ d_lut_INVX1
A_1330_ [_371_ _387_] _370_ d_lut_OR2X2
A_1331_ [_373_ _375_ _387_] _369_ d_lut_OAI21X1
A_1332_ [_369_ _370_] _368_ d_lut_NAND2X1
A_1333_ [_494_] _367_ d_lut_INVX1
A_1334_ [_391_ _377_] _366_ d_lut_NAND2X1
A_1335_ [\u_cpu.bne_or_bge\] _365_ d_lut_INVX1
A_1336_ [_393__bF$buf2 _392_ _376_] _364_ d_lut_OAI21X1
A_1337_ [_364_ _366_] _363_ d_lut_AND2X2
A_1338_ [\u_cpu.bufreg.i_right_shift_op\ _365_ _363_] _362_ d_lut_NAND3X1
A_1339_ [_367_ _366_ _362_] _361_ d_lut_OAI21X1
A_1340_ [_448_ _433_] _360_ d_lut_NOR2X1
A_1341_ [\u_cpu.alu.cmp_r\ _360_ _361_] _359_ d_lut_AOI21X1
A_1342_ [_394_ _368_ _359_] _358_ d_lut_OAI21X1
A_1343_ [_424_ _358_ _396_] _357_ d_lut_OAI21X1
A_1344_ [\u_cpu.state.cnt_r\_2_ _434_] _356_ d_lut_NAND2X1
A_1345_ [\u_cpu.ctrl.pc\ \u_cpu.ctrl.pc_plus_4_cy_r_w\_0_] _355_ d_lut_NAND2X1
A_1346_ [\u_cpu.ctrl.pc\_0_ \u_cpu.ctrl.pc_plus_4_cy_r_w\_0_] _354_ d_lut_OR2X2
A_1347_ [_355_ _354_] _353_ d_lut_NAND2X1
A_1348_ [_353_ _356_] _352_ d_lut_NOR2X1
A_1349_ [_356_ _353_] _351_ d_lut_AND2X2
A_1350_ [_352_ _351_] _350_ d_lut_NOR2X1
A_1351_ [\u_cpu.decode.opcode\_0_ _350_] _349_ d_lut_NAND2X1
A_1352_ [_470_ _349_ _357_] _348_ d_lut_OAI21X1
A_1353_ [_397_ _348_] \u_cpu.o_wdata0\_0_ d_lut_OR2X2
A_1354_ [\u_mem_serial.shift_reg\_6_] _347_ d_lut_INVX1
A_1355_ [_553_ _544_ \u_mem_serial.shift_reg\_7_] _346_ d_lut_OAI21X1
A_1356_ [_347_ _528_ _346_] _839_ d_lut_OAI21X1
A_1357_ [_517_] _345_ d_lut_INVX1
A_1358_ [ren] _344_ d_lut_INVX2
A_1359_ [_519_ _518_ _344_] _343_ d_lut_OAI21X1
A_1360_ [\u_rf_if.rtrig0\] _342_ d_lut_INVX2
A_1361_ [_344_ rf_wreg0_to_if_3_] _341_ d_lut_AND2X2
A_1362_ [ren raddr_7_ _342_ _341_] _340_ d_lut_AOI22X1
A_1363_ [_340_ \u_rf_if.last_req_key\_7_] _339_ d_lut_AND2X2
A_1364_ [\u_rf_if.last_req_key\_7_ _340_] _338_ d_lut_NOR2X1
A_1365_ [_338_ _339_] _337_ d_lut_NOR2X1
A_1366_ [_344_ rf_wreg0_to_if_2_] _336_ d_lut_AND2X2
A_1367_ [ren raddr_6_ _342_ _336_] _335_ d_lut_AOI22X1
A_1368_ [_335_] _334_ d_lut_INVX1
A_1369_ [_334_ \u_rf_if.last_req_key\_6_] _333_ d_lut_OR2X2
A_1370_ [\u_rf_if.last_req_key\_6_ _334_] _332_ d_lut_NAND2X1
A_1371_ [_344_ rf_wreg0_to_if_0_] _331_ d_lut_AND2X2
A_1372_ [ren raddr_4_ _342_ _331_] _330_ d_lut_AOI22X1
A_1373_ [\u_rf_if.last_req_key\_4_ _330_] _329_ d_lut_NAND2X1
A_1374_ [_330_ \u_rf_if.last_req_key\_4_] _328_ d_lut_OR2X2
A_1375_ [_329_ _328_] _327_ d_lut_NAND2X1
A_1376_ [_333_ _332_ _327_] _326_ d_lut_AOI21X1
A_1377_ [\u_rf_if.last_req_key\_3_] _325_ d_lut_INVX1
A_1378_ [raddr_3_] _324_ d_lut_INVX1
A_1379_ [ren \u_rf_if.o_waddr\_3_] _323_ d_lut_NOR2X1
A_1380_ [ren _324_ _323_] _322_ d_lut_AOI21X1
A_1381_ [\u_rf_if.last_req_key\_8_ _344_ _345_ \u_rf_if.last_req_key\_9_] _321_ d_lut_AOI22X1
A_1382_ [_325_ _322_ _321_] _320_ d_lut_OAI21X1
A_1383_ [\u_rf_if.last_req_key\_8_ _344_ \u_rf_if.req_seen\] _319_ d_lut_OAI21X1
A_1384_ [_322_ _325_ _319_] _318_ d_lut_AOI21X1
A_1385_ [\u_rf_if.last_req_key\_9_ _345_ _318_] _317_ d_lut_OAI21X1
A_1386_ [_317_ _320_] _316_ d_lut_NOR2X1
A_1387_ [\u_rf_if.last_req_key\_1_] _315_ d_lut_INVX1
A_1388_ [\u_rf_if.last_req_key\_0_] _314_ d_lut_INVX1
A_1389_ [raddr_1_] _313_ d_lut_INVX1
A_1390_ [ren _313_] _312_ d_lut_NAND2X1
A_1391_ [ren \u_rf_if.o_waddr\_1_ _312_] _311_ d_lut_OAI21X1
A_1392_ [_311_] _310_ d_lut_INVX1
A_1393_ [_344_ raddr_0_] _309_ d_lut_OR2X2
A_1394_ [ren \u_rf_if.o_waddr\_0_ _309_] _308_ d_lut_OAI21X1
A_1395_ [_308_] _307_ d_lut_INVX1
A_1396_ [_315_ _310_ _314_ _307_] _306_ d_lut_OAI22X1
A_1397_ [raddr_2_] _305_ d_lut_INVX1
A_1398_ [ren _305_] _304_ d_lut_NAND2X1
A_1399_ [ren \u_rf_if.o_waddr\_2_ _304_] _303_ d_lut_OAI21X1
A_1400_ [_303_] _302_ d_lut_INVX1
A_1401_ [\u_rf_if.last_req_key\_2_ _302_] _301_ d_lut_NAND2X1
A_1402_ [\u_rf_if.last_req_key\_2_] _300_ d_lut_INVX1
A_1403_ [_300_ _303_] _299_ d_lut_NAND2X1
A_1404_ [_299_ _301_ _306_] _298_ d_lut_AOI21X1
A_1405_ [\u_rf_if.last_req_key\_1_ _311_ \u_rf_if.last_req_key\_0_ _308_] _297_ d_lut_OAI22X1
A_1406_ [\u_rf_if.launch_pending\ _297_] _296_ d_lut_NOR2X1
A_1407_ [_316_ _296_ _298_] _295_ d_lut_NAND3X1
A_1408_ [rf_wreg0_to_if_1_] _294_ d_lut_INVX1
A_1409_ [ren _294_] _293_ d_lut_NOR2X1
A_1410_ [ren raddr_5_ _342_ _293_] _292_ d_lut_AOI22X1
A_1411_ [\u_rf_if.last_req_key\_5_ _292_] _291_ d_lut_NAND2X1
A_1412_ [_292_ \u_rf_if.last_req_key\_5_] _290_ d_lut_OR2X2
A_1413_ [_291_ _290_] _289_ d_lut_NAND2X1
A_1414_ [_295_ _289_] _288_ d_lut_NOR2X1
A_1415_ [_337_ _288_ _326_] _287_ d_lut_NAND3X1
A_1416_ [_287_ _343_] _286_ d_lut_AND2X2
A_1417_ [_440_ _286_] _285_ d_lut_NAND2X1
A_1418_ [_285_] _284_ d_lut_INVX4
A_1419_ [\u_rf_if.last_req_key\_9_ _284_ i_rst_n_bF$buf2] _283_ d_lut_OAI21X1
A_1420_ [_345_ _284_ _283_] _838_ d_lut_AOI21X1
A_1421_ [\u_rf_if.tx_state\_0_] _282_ d_lut_INVX2
A_1422_ [\u_rf_if.tx_state\_2_ _510_] _281_ d_lut_NOR2X1
A_1423_ [\u_rf_if.tx_state\_1_ _282_ _281_] _280_ d_lut_NAND3X1
A_1424_ [_280_ i_rf_miso] _279_ d_lut_OR2X2
A_1425_ [\u_rf_if.shift_rx\_0_] _278_ d_lut_INVX1
A_1426_ [i_rst_n_bF$buf1] _277_ d_lut_INVX1
A_1427_ [_280_ _278_ _277_] _276_ d_lut_AOI21X1
A_1428_ [_279_ _276_] _837_ d_lut_AND2X2
A_1429_ [\u_rf_if.tx_state\_3_ _512_ \u_rf_if.tx_state\_4_] _275_ d_lut_OAI21X1
A_1430_ [_277_ _275_] _836_ d_lut_NOR2X1
A_1431_ [\u_rf_if.tx_state\_1_] _274_ d_lut_INVX1
A_1432_ [_274_ _281_] _273_ d_lut_NAND2X1
A_1433_ [_273_ _440_ _1119_] _272_ d_lut_OAI21X1
A_1434_ [_285_ _272_ _277_] _835_ d_lut_AOI21X1
A_1435_ [_1119_] _271_ d_lut_INVX1
A_1436_ [i_clk_fast_bF$buf7 _271_] _1118_ d_lut_NOR2X1
A_1437_ [_274_ _282_] _270_ d_lut_NOR2X1
A_1438_ [_515_ _270_] _269_ d_lut_NOR2X1
A_1439_ [_340_ _282_ _274_ _335_] _268_ d_lut_AOI22X1
A_1440_ [ren _270_ _268_ _269_] _267_ d_lut_AOI22X1
A_1441_ [_345_ _514_ _267_] _266_ d_lut_OAI21X1
A_1442_ [\u_rf_if.tx_state\_1_ \u_rf_if.tx_state\_0_ \u_rf_if.tx_state\_2_] _265_ d_lut_OAI21X1
A_1443_ [\u_rf_if.tx_state\_2_ _514_ \u_rf_if.tx_state\_3_] _264_ d_lut_OAI21X1
A_1444_ [_264_] _263_ d_lut_INVX1
A_1445_ [_265_ _263_ _266_] _262_ d_lut_NAND3X1
A_1446_ [_265_ _512_] _261_ d_lut_NAND2X1
A_1447_ [_307_ _270_ _261_] _699_ d_lut_AOI21X1
A_1448_ [_514_ _311_ _699_] _700_ d_lut_OAI21X1
A_1449_ [\u_rf_if.wdata0_next\_0_] _717_ d_lut_INVX1
A_1450_ [_449_ _394_] _718_ d_lut_NOR2X1
A_1451_ [_718_ _382_] _719_ d_lut_NAND2X1
A_1452_ [_719_] _791_ d_lut_INVX1
A_1453_ [\u_rf_if.rcnt\_2_] _792_ d_lut_INVX1
A_1454_ [\u_rf_if.o_waddr\_0_ \u_rf_if.o_waddr\_3_] _793_ d_lut_NOR2X1
A_1455_ [\u_rf_if.o_waddr\_2_ \u_rf_if.o_waddr\_1_] _794_ d_lut_NOR2X1
A_1456_ [_793_ _794_] _795_ d_lut_NAND2X1
A_1457_ [_792_ _795_] _796_ d_lut_NOR2X1
A_1458_ [_795_ \u_rf_if.wdata0_next_phase\] _797_ d_lut_AND2X2
A_1459_ [_796_ _797_ _791_] _798_ d_lut_OAI21X1
A_1460_ [\u_rf_if.i_stream_rs2_en\ \u_rf_if.read_buf1\_0_ _798_] _799_ d_lut_AOI21X1
A_1461_ [_717_ \u_rf_if.i_stream_rs2_en\ _799_] _800_ d_lut_OAI21X1
A_1462_ [\u_rf_if.wdata0_r\_0_] _801_ d_lut_INVX1
A_1463_ [_801_ _798_] _802_ d_lut_NAND2X1
A_1464_ [_800_ _802_ \u_rf_if.tx_state\_1_] _803_ d_lut_AOI21X1
A_1465_ [_342_ _269_] _804_ d_lut_AND2X2
A_1466_ [\u_rf_if.i_stream_rs2_en\ _798_] _805_ d_lut_NOR2X1
A_1467_ [\u_cpu.o_wdata0\_0_ _805_] _833_ d_lut_AND2X2
A_1468_ [_717_ _805_ _282_] _834_ d_lut_OAI21X1
A_1469_ [_834_ _833_ _804_] _840_ d_lut_OAI21X1
A_1470_ [_803_ _840_] _842_ d_lut_NOR2X1
A_1471_ [_512_ \u_rf_if.tx_state\_3_] _843_ d_lut_OR2X2
A_1472_ [_264_ _843_] _852_ d_lut_NAND2X1
A_1473_ [_292_ _514_] _853_ d_lut_OR2X2
A_1474_ [_330_] _854_ d_lut_INVX1
A_1475_ [_282_ _302_] _855_ d_lut_NOR2X1
A_1476_ [\u_rf_if.tx_state\_0_ _322_ _269_] _856_ d_lut_OAI21X1
A_1477_ [_855_ _856_ _261_] _857_ d_lut_OAI21X1
A_1478_ [_854_ _270_ _857_] _858_ d_lut_AOI21X1
A_1479_ [_858_ _853_ _852_] _859_ d_lut_AOI21X1
A_1480_ [_700_ _842_ _859_] _860_ d_lut_OAI21X1
A_1481_ [_860_ _262_ _271_] _1117_ d_lut_AOI21X1
A_1482_ [\u_rf_if.o_waddr\_0_] _861_ d_lut_INVX1
A_1483_ [\u_rf_if.wen0_r\ \u_rf_if.rtrig0\] _862_ d_lut_NAND2X1
A_1484_ [_861_ _862_] _863_ d_lut_NOR2X1
A_1485_ [\u_rf_if.o_waddr\_1_ _863_] _864_ d_lut_NAND2X1
A_1486_ [_864_] _865_ d_lut_INVX1
A_1487_ [_865_ \u_rf_if.o_waddr\_2_] _866_ d_lut_AND2X2
A_1488_ [\u_rf_if.o_waddr\_3_ _866_] _867_ d_lut_NOR2X1
A_1489_ [_866_ \u_rf_if.o_waddr\_3_] _868_ d_lut_AND2X2
A_1490_ [_867_ _868_] _869_ d_lut_NOR2X1
A_1491_ [_869_ _444_] _832_ d_lut_AND2X2
A_1492_ [_542__bF$buf1] _870_ d_lut_INVX2
A_1493_ [\u_mem_serial.shift_reg\_26_ _870_] _871_ d_lut_NOR2X1
A_1494_ [\u_mem_serial.shift_reg\_27_ _543__bF$buf1] _872_ d_lut_NOR2X1
A_1495_ [_543__bF$buf0 _871_ _872_] _831_ d_lut_AOI21X1
A_1496_ [_473_ _466_] _873_ d_lut_NOR2X1
A_1497_ [\u_cpu.decode.opcode\_0_ _386_] _874_ d_lut_NOR2X1
A_1498_ [_874_] _875_ d_lut_INVX1
A_1499_ [_875_ _438_ \u_cpu.decode.opcode\_2_] _876_ d_lut_AOI21X1
A_1500_ [rf_wreg0_to_if_3_ rf_wreg0_to_if_2_] _877_ d_lut_NOR2X1
A_1501_ [rf_wreg0_to_if_0_ \u_cpu.immdec.gen_immdec_w_eq_1.imm11_7\_4_] _878_ d_lut_NOR2X1
A_1502_ [_877_ _878_] _879_ d_lut_AND2X2
A_1503_ [_294_ _879_ _876_] _880_ d_lut_AOI21X1
A_1504_ [_880_ _873__bF$buf5] _881_ d_lut_NAND2X1
A_1505_ [_881_ _518_ \u_rf_if.rtrig0\] _830_ d_lut_MUX2X1
A_1506_ [\u_mem_serial.shift_reg\_27_ _870_] _882_ d_lut_NOR2X1
A_1507_ [\u_mem_serial.shift_reg\_28_ _543__bF$buf5] _883_ d_lut_NOR2X1
A_1508_ [_543__bF$buf4 _882_ _883_] _829_ d_lut_AOI21X1
A_1509_ [rf_read_reg1_to_if_3_] _884_ d_lut_INVX1
A_1510_ [mem_ibus_ack_bF$buf5 \u_rf_if.rreg1_latched\_3_] _885_ d_lut_NOR2X1
A_1511_ [mem_ibus_ack_bF$buf4 _884_ _885_] _828_ d_lut_AOI21X1
A_1512_ [rf_read_reg0_to_if_3_] _886_ d_lut_INVX1
A_1513_ [mem_ibus_ack_bF$buf3 \u_rf_if.rreg0_latched\_3_] _887_ d_lut_NOR2X1
A_1514_ [mem_ibus_ack_bF$buf2 _886_ _887_] _827_ d_lut_AOI21X1
A_1515_ [\u_rf_if.read_buf1\_0_] _888_ d_lut_INVX1
A_1516_ [_498_ _441_ _517_] _889_ d_lut_OAI21X1
A_1517_ [_719_ _889_] _890_ d_lut_NOR2X1
A_1518_ [\u_rf_if.i_stream_rs2_en\ _890_] _891_ d_lut_NAND2X1
A_1519_ [\u_cpu.o_wdata0\_0_ _891_ _444_] _892_ d_lut_OAI21X1
A_1520_ [_888_ _891_ _892_] _826_ d_lut_AOI21X1
A_1521_ [\u_rf_if.write_wait\_0_ \u_rf_if.write_wait\_1_] _893_ d_lut_NOR2X1
A_1522_ [\u_rf_if.pending_read\] _894_ d_lut_INVX1
A_1523_ [\u_rf_if.prefetch_active\ _894_] _895_ d_lut_NOR2X1
A_1524_ [_893_ _895_] _896_ d_lut_NAND2X1
A_1525_ [_896_ \u_rf_if.issue_idx\_5_] _825_ d_lut_AND2X2
A_1526_ [_896_] _897_ d_lut_INVX1
A_1527_ [_894_ _508_ _897_] _824_ d_lut_AOI21X1
A_1528_ [\u_rf_if.stream_cnt\_4_] _898_ d_lut_INVX1
A_1529_ [\u_rf_if.stream_cnt\_3_] _899_ d_lut_INVX1
A_1530_ [\u_rf_if.stream_cnt\_1_] _900_ d_lut_INVX1
A_1531_ [\u_rf_if.stream_cnt\_0_] _901_ d_lut_INVX1
A_1532_ [_900_ _901_] _902_ d_lut_NOR2X1
A_1533_ [\u_rf_if.stream_cnt\_2_ _902_] _903_ d_lut_NAND2X1
A_1534_ [_903_ _899_] _904_ d_lut_OR2X2
A_1535_ [_902_] _905_ d_lut_INVX1
A_1536_ [\u_rf_if.stream_cnt\_2_ \u_rf_if.stream_cnt\_4_ \u_rf_if.stream_cnt\_3_] _906_ d_lut_NAND3X1
A_1537_ [_906_ _905_ \u_rf_if.stream_active\] _907_ d_lut_OAI21X1
A_1538_ [\u_rf_if.stream_active\ \u_rf_if.ready_pulse\] _908_ d_lut_NOR2X1
A_1539_ [\u_rf_if.stream_cnt\_4_ _908_] _909_ d_lut_NAND2X1
A_1540_ [_907_ _909_ _904_ _898_] _823_ d_lut_AOI22X1
A_1541_ [_340_ _335_] _910_ d_lut_NAND2X1
A_1542_ [_330_ _292_] _911_ d_lut_NAND2X1
A_1543_ [_910_ _911_ \u_rf_if.shift_rx\_0_] _912_ d_lut_OAI21X1
A_1544_ [\u_rf_if.prefetch_active\] _913_ d_lut_INVX1
A_1545_ [\u_rf_if.issue_idx\_1_ \u_rf_if.issue_idx\_0_] _914_ d_lut_NOR2X1
A_1546_ [\u_rf_if.issue_idx\_3_ \u_rf_if.issue_idx\_2_] _915_ d_lut_NOR2X1
A_1547_ [_914_ _915_] _916_ d_lut_NAND2X1
A_1548_ [_916_] _917_ d_lut_INVX1
A_1549_ [\u_rf_if.issue_idx\_4_ \u_rf_if.issue_idx\_5_] _918_ d_lut_NOR2X1
A_1550_ [_917_ _918_ _913_] _919_ d_lut_AOI21X1
A_1551_ [\u_rf_if.issue_idx\_0_] _920_ d_lut_INVX1
A_1552_ [\u_rf_if.issue_idx\_1_ _920_] _921_ d_lut_NOR2X1
A_1553_ [_921_ _915_] _922_ d_lut_AND2X2
A_1554_ [\u_rf_if.issue_idx\_4_ _922_ \u_rf_if.i_stream_rs2_en\] _923_ d_lut_NAND3X1
A_1555_ [_919_ _923_] _924_ d_lut_NAND2X1
A_1556_ [\u_rf_if.stream_active\ _924_] _925_ d_lut_NOR2X1
A_1557_ [_925__bF$buf3] _926_ d_lut_INVX4
A_1558_ [\u_rf_if.read_buf0\_30_ _393__bF$buf1] _927_ d_lut_NAND2X1
A_1559_ [_927_] _928_ d_lut_INVX1
A_1560_ [\u_rf_if.stream_active\ \u_rf_if.read_buf0\_31_ _924_ _928_] _929_ d_lut_AOI22X1
A_1561_ [_926_ _912_ _929_] _822_ d_lut_OAI21X1
A_1562_ [_917_ \u_rf_if.i_stream_rs2_en\] _930_ d_lut_NAND2X1
A_1563_ [\u_rf_if.issue_idx\_5_ _930_] _931_ d_lut_NOR2X1
A_1564_ [_918_ _931_ \u_rf_if.prefetch_active\] _932_ d_lut_OAI21X1
A_1565_ [_896_ _932_] _821_ d_lut_NAND2X1
A_1566_ [_932_] _933_ d_lut_INVX2
A_1567_ [\u_rf_if.stream_cnt\_2_ \u_rf_if.stream_cnt\_1_ \u_rf_if.stream_cnt\_3_] _934_ d_lut_NAND3X1
A_1568_ [\u_rf_if.stream_cnt\_0_ _393__bF$buf0] _935_ d_lut_NOR2X1
A_1569_ [_935_] _936_ d_lut_INVX1
A_1570_ [_936_ _380_] _937_ d_lut_NOR2X1
A_1571_ [_898_ _934_ _937_] _938_ d_lut_OAI21X1
A_1572_ [_938_] _939_ d_lut_INVX2
A_1573_ [_939_ _933_] _940_ d_lut_NOR2X1
A_1574_ [_940_] _820_ d_lut_INVX1
A_1575_ [_930_ \u_rf_if.issue_idx\_4_ \u_rf_if.issue_idx\_5_] _941_ d_lut_AOI21X1
A_1576_ [_913_ _941_] _819_ d_lut_NOR2X1
A_1577_ [\u_rf_if.read_buf0\_31_] _942_ d_lut_INVX1
A_1578_ [_393__bF$buf4 _924_] _943_ d_lut_NAND2X1
A_1579_ [_910_ _911_ \u_rf_if.shift_rx\_1_] _944_ d_lut_OAI21X1
A_1580_ [_942_ _943__bF$buf4 _926_ _944_] _818_ d_lut_OAI22X1
A_1581_ [\u_rf_if.write_wait\_0_ \u_rf_if.write_wait\_1_] _945_ d_lut_NAND2X1
A_1582_ [_945_ _444_] _817_ d_lut_NAND2X1
A_1583_ [_919_] _946_ d_lut_INVX1
A_1584_ [_946_ _923_ _907_] _947_ d_lut_OAI21X1
A_1585_ [\u_rf_if.rs2_stream_buf\_1_ _947_] _948_ d_lut_NOR2X1
A_1586_ [\u_rf_if.i_stream_rs2_en\ _947_] _949_ d_lut_NAND2X1
A_1587_ [\u_rf_if.rs2_stream_buf\_1_ _949_] _950_ d_lut_NAND2X1
A_1588_ [_380_ _944_ _950_] _951_ d_lut_OAI21X1
A_1589_ [_393__bF$buf3 \u_rf_if.stream_cnt\_0_ _951_] _952_ d_lut_OAI21X1
A_1590_ [_948_ _952_] _816_ d_lut_NOR2X1
A_1591_ [\u_rf_if.ready_pulse\] _953_ d_lut_INVX1
A_1592_ [\u_rf_if.stream_active\ _953_ _907_] _815_ d_lut_OAI21X1
A_1593_ [\u_rf_if.rcnt\_0_ \u_rf_if.rcnt\_1_] _954_ d_lut_NOR2X1
A_1594_ [\u_rf_if.rcnt\_1_] _955_ d_lut_INVX1
A_1595_ [_498_ _955_] _956_ d_lut_NOR2X1
A_1596_ [_956_ _954_] _957_ d_lut_OR2X2
A_1597_ [mem_ibus_ack_bF$buf1 _957_ _444_] _814_ d_lut_OAI21X1
A_1598_ [_796_ _890_] _958_ d_lut_NAND2X1
A_1599_ [_795_ _889_ \u_rf_if.wdata0_next_phase\] _959_ d_lut_OAI21X1
A_1600_ [_958_ _959_ _443_] _813_ d_lut_AOI21X1
A_1601_ [\u_rf_if.issue_idx\_4_ _931_] _960_ d_lut_NAND2X1
A_1602_ [\u_rf_if.rreg0_latched\_3_ _960_ _933_] _961_ d_lut_NAND3X1
A_1603_ [_913_ _960_ _938_] _962_ d_lut_OAI21X1
A_1604_ [\u_rf_if.rreg1_latched\_3_ _962_ _940_ raddr_7_] _963_ d_lut_AOI22X1
A_1605_ [_939_ _961_ _963_] _812_ d_lut_OAI21X1
A_1606_ [i_rf_miso] _964_ d_lut_INVX1
A_1607_ [_281_ _270_] _965_ d_lut_AND2X2
A_1608_ [\u_rf_if.shift_rx\_1_ _965_ i_rst_n_bF$buf0] _966_ d_lut_OAI21X1
A_1609_ [_964_ _965_ _966_] _811_ d_lut_AOI21X1
A_1610_ [_908_ _935_] _967_ d_lut_NOR2X1
A_1611_ [_393__bF$buf2 _901_ _967_] _810_ d_lut_AOI21X1
A_1612_ [\u_rf_if.stream_active\ \u_rf_if.stream_cnt\_0_ \u_rf_if.stream_cnt\_1_] _968_ d_lut_AOI21X1
A_1613_ [_967_ \u_rf_if.stream_cnt\_1_ _968_] _809_ d_lut_AOI21X1
A_1614_ [\u_rf_if.stream_cnt\_2_] _969_ d_lut_INVX1
A_1615_ [_903_ \u_rf_if.stream_active\ _908_] _970_ d_lut_AOI21X1
A_1616_ [_393__bF$buf1 _905_] _971_ d_lut_NOR2X1
A_1617_ [_971_] _972_ d_lut_INVX1
A_1618_ [_972_ _969_ _970_] _808_ d_lut_AOI21X1
A_1619_ [\u_rf_if.stream_cnt\_2_ _899_ _971_] _973_ d_lut_NAND3X1
A_1620_ [_899_ _970_ _973_] _807_ d_lut_OAI21X1
A_1621_ [\u_rf_if.write_wait\_1_ _444_] _974_ d_lut_NAND2X1
A_1622_ [\u_rf_if.write_wait\_0_ _974_] _806_ d_lut_NOR2X1
A_1623_ [\u_rf_if.read_buf0\_1_] _975_ d_lut_INVX1
A_1624_ [_943__bF$buf3] _976_ d_lut_INVX1
A_1625_ [\u_rf_if.read_buf0\_2_ _925__bF$buf2 _976_ \u_rf_if.read_buf0\_0_] _977_ d_lut_AOI22X1
A_1626_ [_393__bF$buf0 _975_ _977_] _790_ d_lut_OAI21X1
A_1627_ [\u_rf_if.read_buf0\_2_] _978_ d_lut_INVX1
A_1628_ [\u_rf_if.read_buf0\_3_ _925__bF$buf1 _976_ \u_rf_if.read_buf0\_1_] _979_ d_lut_AOI22X1
A_1629_ [_393__bF$buf4 _978_ _979_] _789_ d_lut_OAI21X1
A_1630_ [\u_rf_if.read_buf0\_4_] _980_ d_lut_INVX1
A_1631_ [_393__bF$buf3 \u_rf_if.read_buf0\_3_ \u_rf_if.read_buf0\_2_ _943__bF$buf2] _981_ d_lut_OAI22X1