* XSpice netlist created from SPICE and liberty sources by spi2xspice.py
*SPICE netlist created from verilog structural netlist module my_mcu_top by vlog2Spice (qflow)
** Start of included library /usr/local/share/qflow/tech/etri050/etri050_stdcells.sp
* NGSPICE file created from khu_etri050_stdcells.ext - technology: scmos
** End of included library /usr/local/share/qflow/tech/etri050/etri050_stdcells.sp
.subckt my_mcu_top a_vdd a_gnd a_i_clk_fast a_i_clk_sys_ext a_i_rst_n a_o_rf_sync a_o_rf_sck a_o_rf_mosi a_i_rf_miso a_o_mem_sync a_o_mem_sck a_o_mem_mosi a_i_mem_miso
ABUFX2_insert67 [mem_ibus_ack] mem_ibus_ack_bF$buf0 d_lut_BUFX2
ABUFX2_insert66 [mem_ibus_ack] mem_ibus_ack_bF$buf1 d_lut_BUFX2
ABUFX2_insert65 [mem_ibus_ack] mem_ibus_ack_bF$buf2 d_lut_BUFX2
ABUFX2_insert64 [mem_ibus_ack] mem_ibus_ack_bF$buf3 d_lut_BUFX2
ABUFX2_insert63 [mem_ibus_ack] mem_ibus_ack_bF$buf4 d_lut_BUFX2
ABUFX2_insert62 [mem_ibus_ack] mem_ibus_ack_bF$buf5 d_lut_BUFX2
ABUFX2_insert61 [mem_ibus_ack] mem_ibus_ack_bF$buf6 d_lut_BUFX2
ABUFX2_insert60 [_459_] _459__bF$buf0 d_lut_BUFX2
ABUFX2_insert59 [_459_] _459__bF$buf1 d_lut_BUFX2
ABUFX2_insert58 [_459_] _459__bF$buf2 d_lut_BUFX2
ABUFX2_insert57 [_459_] _459__bF$buf3 d_lut_BUFX2
ABUFX2_insert56 [_459_] _459__bF$buf4 d_lut_BUFX2
ABUFX2_insert55 [_459_] _459__bF$buf5 d_lut_BUFX2
ABUFX2_insert54 [_459_] _459__bF$buf6 d_lut_BUFX2
ABUFX2_insert53 [_489_] _489__bF$buf0 d_lut_BUFX2
ABUFX2_insert52 [_489_] _489__bF$buf1 d_lut_BUFX2
ABUFX2_insert51 [_489_] _489__bF$buf2 d_lut_BUFX2
ABUFX2_insert50 [_489_] _489__bF$buf3 d_lut_BUFX2
ABUFX2_insert49 [_489_] _489__bF$buf4 d_lut_BUFX2
ABUFX2_insert48 [_489_] _489__bF$buf5 d_lut_BUFX2
ABUFX2_insert47 [_586_] _586__bF$buf0 d_lut_BUFX2
ABUFX2_insert46 [_586_] _586__bF$buf1 d_lut_BUFX2
ABUFX2_insert45 [_586_] _586__bF$buf2 d_lut_BUFX2
ABUFX2_insert44 [_586_] _586__bF$buf3 d_lut_BUFX2
ABUFX2_insert43 [_586_] _586__bF$buf4 d_lut_BUFX2
ABUFX2_insert42 [_23_] _23__bF$buf0 d_lut_BUFX2
ABUFX2_insert41 [_23_] _23__bF$buf1 d_lut_BUFX2
ABUFX2_insert40 [_23_] _23__bF$buf2 d_lut_BUFX2
ABUFX2_insert39 [_23_] _23__bF$buf3 d_lut_BUFX2
ABUFX2_insert38 [_23_] _23__bF$buf4 d_lut_BUFX2
ABUFX2_insert37 [\u_rf_if.stream_active\] \u_rf_if.stream_active_bF$buf0\ d_lut_BUFX2
ABUFX2_insert36 [\u_rf_if.stream_active\] \u_rf_if.stream_active_bF$buf1\ d_lut_BUFX2
ABUFX2_insert35 [\u_rf_if.stream_active\] \u_rf_if.stream_active_bF$buf2\ d_lut_BUFX2
ABUFX2_insert34 [\u_rf_if.stream_active\] \u_rf_if.stream_active_bF$buf3\ d_lut_BUFX2
ABUFX2_insert33 [\u_rf_if.stream_active\] \u_rf_if.stream_active_bF$buf4\ d_lut_BUFX2
ABUFX2_insert32 [\u_rf_if.stream_active\] \u_rf_if.stream_active_bF$buf5\ d_lut_BUFX2
ABUFX2_insert31 [\u_rf_if.stream_active\] \u_rf_if.stream_active_bF$buf6\ d_lut_BUFX2
ACLKBUF1_insert30 [i_clk_fast] i_clk_fast_bF$buf0 d_lut_CLKBUF1
ACLKBUF1_insert29 [i_clk_fast] i_clk_fast_bF$buf1 d_lut_CLKBUF1
ACLKBUF1_insert28 [i_clk_fast] i_clk_fast_bF$buf2 d_lut_CLKBUF1
ACLKBUF1_insert27 [i_clk_fast] i_clk_fast_bF$buf3 d_lut_CLKBUF1
ACLKBUF1_insert26 [i_clk_fast] i_clk_fast_bF$buf4 d_lut_CLKBUF1
ACLKBUF1_insert25 [i_clk_fast] i_clk_fast_bF$buf5 d_lut_CLKBUF1
ACLKBUF1_insert24 [i_clk_fast] i_clk_fast_bF$buf6 d_lut_CLKBUF1
ACLKBUF1_insert23 [i_clk_fast] i_clk_fast_bF$buf7 d_lut_CLKBUF1
ACLKBUF1_insert22 [i_clk_sys_ext] i_clk_sys_ext_bF$buf0 d_lut_CLKBUF1
ACLKBUF1_insert21 [i_clk_sys_ext] i_clk_sys_ext_bF$buf1 d_lut_CLKBUF1
ACLKBUF1_insert20 [i_clk_sys_ext] i_clk_sys_ext_bF$buf2 d_lut_CLKBUF1
ACLKBUF1_insert19 [i_clk_sys_ext] i_clk_sys_ext_bF$buf3 d_lut_CLKBUF1
ACLKBUF1_insert18 [i_clk_sys_ext] i_clk_sys_ext_bF$buf4 d_lut_CLKBUF1
ACLKBUF1_insert17 [i_clk_sys_ext] i_clk_sys_ext_bF$buf5 d_lut_CLKBUF1
ACLKBUF1_insert16 [i_clk_sys_ext] i_clk_sys_ext_bF$buf6 d_lut_CLKBUF1
ACLKBUF1_insert15 [i_clk_sys_ext] i_clk_sys_ext_bF$buf7 d_lut_CLKBUF1
ACLKBUF1_insert14 [i_clk_sys_ext] i_clk_sys_ext_bF$buf8 d_lut_CLKBUF1
ACLKBUF1_insert13 [i_clk_sys_ext] i_clk_sys_ext_bF$buf9 d_lut_CLKBUF1
ACLKBUF1_insert12 [i_clk_sys_ext] i_clk_sys_ext_bF$buf10 d_lut_CLKBUF1
ACLKBUF1_insert11 [i_clk_sys_ext] i_clk_sys_ext_bF$buf11 d_lut_CLKBUF1
ACLKBUF1_insert10 [i_clk_sys_ext] i_clk_sys_ext_bF$buf12 d_lut_CLKBUF1
ACLKBUF1_insert9 [i_clk_sys_ext] i_clk_sys_ext_bF$buf13 d_lut_CLKBUF1
ABUFX2_insert8 [i_rst_n] i_rst_n_bF$buf0 d_lut_BUFX2
ABUFX2_insert7 [i_rst_n] i_rst_n_bF$buf1 d_lut_BUFX2
ABUFX2_insert6 [i_rst_n] i_rst_n_bF$buf2 d_lut_BUFX2
ABUFX2_insert5 [i_rst_n] i_rst_n_bF$buf3 d_lut_BUFX2
ABUFX2_insert4 [_124_] _124__bF$buf0 d_lut_BUFX2
ABUFX2_insert3 [_124_] _124__bF$buf1 d_lut_BUFX2
ABUFX2_insert2 [_124_] _124__bF$buf2 d_lut_BUFX2
ABUFX2_insert1 [_124_] _124__bF$buf3 d_lut_BUFX2
ABUFX2_insert0 [_124_] _124__bF$buf4 d_lut_BUFX2
A_1137_ [_1113_] o_rf_sync d_lut_BUFX2
A_1138_ [_1112_] o_rf_sck d_lut_BUFX2
A_1139_ [_1111_] o_rf_mosi d_lut_BUFX2
A_1140_ [_1110_] o_mem_sync d_lut_BUFX2
A_1141_ [_1109_] o_mem_sck d_lut_BUFX2
A_1142_ [_0_] o_mem_mosi d_lut_BUFX2
A_1143_ [\u_rf_if.issue_reg\_1_] _596_ d_lut_INVX1
A_1144_ [rf_read_reg0_to_if_1_] _595_ d_lut_INVX1
A_1145_ [_595_ _596_ mem_ibus_ack_bF$buf6] _859_ d_lut_MUX2X1
A_1146_ [\u_rf_if.stream_active_bF$buf6\] _594_ d_lut_INVX2
A_1147_ [\u_rf_if.issue_idx\_5_ \u_rf_if.issue_idx\_4_] _593_ d_lut_NOR2X1
A_1148_ [_593_] _592_ d_lut_INVX2
A_1149_ [\u_rf_if.issue_chunk\_3_] _591_ d_lut_INVX1
A_1150_ [\u_rf_if.issue_chunk\_2_] _590_ d_lut_INVX1
A_1151_ [\u_rf_if.issue_chunk\_1_ \u_rf_if.issue_chunk\_0_] _589_ d_lut_NOR2X1
A_1152_ [_591_ _590_ _589_] _588_ d_lut_NAND3X1
A_1153_ [_592_ _588_ \u_rf_if.prefetch_active\] _587_ d_lut_OAI21X1
A_1154_ [_594_ _587_] _586_ d_lut_NAND2X1
A_1155_ [_586__bF$buf4] _585_ d_lut_INVX2
A_1156_ [\u_rf_if.read_buf0\_31_ _585_] _584_ d_lut_NAND2X1
A_1157_ [\u_rf_if.rcnt\_0_] _583_ d_lut_INVX1
A_1158_ [mem_ibus_ack_bF$buf5] _582_ d_lut_INVX2
A_1159_ [\u_cpu.state.init_done\] _581_ d_lut_INVX1
A_1160_ [\u_cpu.bufreg.i_right_shift_op\] _580_ d_lut_INVX2
A_1161_ [\u_cpu.decode.co_mem_word\] _579_ d_lut_INVX1
A_1162_ [_580_ _579_] _578_ d_lut_NOR2X1
A_1163_ [\u_cpu.branch_op\ \u_cpu.decode.opcode\_0_] _577_ d_lut_NOR2X1
A_1164_ [\u_cpu.bne_or_bge\ \u_cpu.decode.co_mem_word\ _577_] _576_ d_lut_OAI21X1
A_1165_ [_578_ _576_ \u_cpu.decode.opcode\_2_] _575_ d_lut_OAI21X1
A_1166_ [_581_ _575_] _574_ d_lut_NAND2X1
A_1167_ [\u_cpu.bufreg2.i_bytecnt\_1_] _573_ d_lut_INVX1
A_1168_ [\u_cpu.bufreg2.i_bytecnt\_0_] _572_ d_lut_INVX1
A_1169_ [\u_cpu.state.cnt_r\_3_] _571_ d_lut_INVX1
A_1170_ [\u_cpu.state.o_cnt\_2_] _570_ d_lut_INVX1
A_1171_ [_571_ _570_] _569_ d_lut_NOR2X1
A_1172_ [_569_] _568_ d_lut_INVX1
A_1173_ [_572_ _568_] _567_ d_lut_NOR2X1
A_1174_ [_567_] _566_ d_lut_INVX1
A_1175_ [_573_ _566_] _565_ d_lut_NOR2X1
A_1176_ [_565_] _564_ d_lut_INVX1
A_1177_ [_574_ _564_] _563_ d_lut_NOR2X1
A_1178_ [_563_] _562_ d_lut_INVX1
A_1179_ [\u_cpu.state.cnt_r\_2_] _561_ d_lut_INVX1
A_1180_ [\u_cpu.state.cnt_r\_0_ \u_cpu.state.cnt_r\_1_] _560_ d_lut_OR2X2
A_1181_ [\u_cpu.state.cnt_r\_3_ _560_] _559_ d_lut_NOR2X1
A_1182_ [_561_ _559_] _558_ d_lut_NAND2X1
A_1183_ [_558_] _557_ d_lut_INVX2
A_1184_ [\u_cpu.bufreg.i_right_shift_op\ _557_] _556_ d_lut_NAND2X1
A_1185_ [_581_ _556_ _562_] _555_ d_lut_OAI21X1
A_1186_ [\u_cpu.decode.opcode\_2_] _554_ d_lut_INVX2
A_1187_ [\u_cpu.decode.co_mem_word\ _554_] _553_ d_lut_NOR2X1
A_1188_ [_553_] _552_ d_lut_INVX2
A_1189_ [\u_cpu.bufreg2.dhi\_6_] _551_ d_lut_INVX1
A_1190_ [_574_] _550_ d_lut_INVX1
A_1191_ [_580_ _564_ _550_] _549_ d_lut_OAI21X1
A_1192_ [_549_] _548_ d_lut_INVX1
A_1193_ [_552_ _548_] _547_ d_lut_NOR2X1
A_1194_ [\u_cpu.bufreg.i_shamt\_2_] _546_ d_lut_INVX1
A_1195_ [\u_cpu.bufreg.i_shamt\_0_ \u_cpu.bufreg.i_shamt\_1_] _545_ d_lut_NOR2X1
A_1196_ [_546_ _545_] _544_ d_lut_NAND2X1
A_1197_ [\u_cpu.bufreg2.dhi\_3_ _544_] _543_ d_lut_NOR2X1
A_1198_ [_543_] _542_ d_lut_INVX1
A_1199_ [\u_cpu.bufreg2.dhi\_4_ _542_] _541_ d_lut_NOR2X1
A_1200_ [\u_cpu.bufreg2.dhi\_5_ _541_] _540_ d_lut_NAND2X1
A_1201_ [\u_cpu.bufreg2.dhi\_5_] _539_ d_lut_INVX1
A_1202_ [\u_cpu.bufreg2.dhi\_4_ _542_ _539_] _538_ d_lut_OAI21X1
A_1203_ [_540_ _538_ _547_] _537_ d_lut_NAND3X1
A_1204_ [_551_ _547_ _537_] _536_ d_lut_OAI21X1
A_1205_ [_536_] _535_ d_lut_INVX1
A_1206_ [_535_ \u_cpu.bufreg.i_right_shift_op\ _552_] _534_ d_lut_AOI21X1
A_1207_ [_555_ _534_] _533_ d_lut_NAND2X1
A_1208_ [\u_cpu.decode.opcode\_0_] _532_ d_lut_INVX2
A_1209_ [\u_cpu.decode.opcode\_2_ _532_] _531_ d_lut_NAND2X1
A_1210_ [\u_cpu.decode.co_mem_word\ _580_] _530_ d_lut_NAND2X1
A_1211_ [_531_ _530_] _529_ d_lut_NOR2X1
A_1212_ [\u_cpu.branch_op\ _529_ _563_] _528_ d_lut_OAI21X1
A_1213_ [_528_ _533_] _527_ d_lut_NAND2X1
A_1214_ [_527_] _526_ d_lut_INVX2
A_1215_ [_582_ _526_] _525_ d_lut_NAND2X1
A_1216_ [_583_ _525_] \u_rf_if.rtrig0\ d_lut_NOR2X1
A_1217_ [\u_rf_if.rtrig0\] _524_ d_lut_INVX2
A_1218_ [rf_wreg0_to_if_2_] _523_ d_lut_INVX1
A_1219_ [ren _523_] _522_ d_lut_NOR2X1
A_1220_ [ren raddr_6_ _524_ _522_] _521_ d_lut_AOI22X1
A_1221_ [ren] _520_ d_lut_INVX2
A_1222_ [_520_ rf_wreg0_to_if_0_] _519_ d_lut_AND2X2
A_1223_ [ren raddr_4_ _524_ _519_] _518_ d_lut_AOI22X1
A_1224_ [_521_ _518_] _517_ d_lut_AND2X2
A_1225_ [_520_ rf_wreg0_to_if_1_] _516_ d_lut_AND2X2
A_1226_ [ren raddr_5_ _524_ _516_] _515_ d_lut_AOI22X1
A_1227_ [_520_ rf_wreg0_to_if_3_] _514_ d_lut_AND2X2
A_1228_ [ren raddr_7_ _524_ _514_] _513_ d_lut_AOI22X1
A_1229_ [_515_ _513_ _517_] _512_ d_lut_NAND3X1
A_1230_ [\u_rf_if.shift_rx\_1_] _511_ d_lut_INVX1
A_1231_ [_511_ _587_] _510_ d_lut_NOR2X1
A_1232_ [_510_ _512_] _509_ d_lut_NAND2X1
A_1233_ [\u_rf_if.stream_active_bF$buf5\ _509_ _584_] _858_ d_lut_OAI21X1
A_1234_ [\u_mem_serial.active_ibus\] _508_ d_lut_INVX1
A_1235_ [\u_mem_serial.state\_1_ _508_] _507_ d_lut_NOR2X1
A_1236_ [_507_] _506_ d_lut_INVX1
A_1237_ [i_clk_sys_ext_bF$buf13] _505_ d_lut_INVX1
A_1238_ [\u_mem_serial.clk_sys_prev\ _505_ \u_mem_serial.state\_1_] _504_ d_lut_OAI21X1
A_1239_ [\u_mem_serial.bit_count\_3_] _503_ d_lut_INVX1
A_1240_ [\u_mem_serial.bit_count\_4_ \u_mem_serial.bit_count\_2_] _502_ d_lut_NOR2X1
A_1241_ [_503_ _502_] _501_ d_lut_NAND2X1
A_1242_ [\u_mem_serial.bit_count\_5_ _501_] _500_ d_lut_NOR2X1
A_1243_ [_500_] _499_ d_lut_INVX1
A_1244_ [\u_mem_serial.bit_count\_6_] _498_ d_lut_INVX1
A_1245_ [\u_mem_serial.bit_count\_0_] _497_ d_lut_INVX1
A_1246_ [\u_mem_serial.bit_count\_1_ _497_] _496_ d_lut_NOR2X1
A_1247_ [_498_ _496_] _495_ d_lut_NAND2X1
A_1248_ [_495_ _499_] _494_ d_lut_NOR2X1
A_1249_ [_494_] _493_ d_lut_INVX1
A_1250_ [_506_ _493_ \u_mem_serial.state\_0_] _492_ d_lut_OAI21X1
A_1251_ [_492_ _504_] _491_ d_lut_AND2X2
A_1252_ [\u_mem_serial.state\_0_] _490_ d_lut_INVX1
A_1253_ [\u_mem_serial.state\_1_ _490_] _489_ d_lut_NOR2X1
A_1254_ [_489__bF$buf5] _488_ d_lut_INVX2
A_1255_ [\u_mem_serial.bit_count\_6_ _488_] _487_ d_lut_NOR2X1
A_1256_ [_487_] _486_ d_lut_INVX1
A_1257_ [_499_ _486_] _485_ d_lut_NOR2X1
A_1258_ [_496_ _485_] _484_ d_lut_NAND2X1
A_1259_ [_506_ _484_ _582_ _491_] _857_ d_lut_OAI22X1
A_1260_ [_1110_] _483_ d_lut_INVX1
A_1261_ [i_clk_fast_bF$buf7 _483_] _1109_ d_lut_NOR2X1
A_1262_ [\u_mem_serial.shift_reg\_31_] _482_ d_lut_INVX1
A_1263_ [_483_ _482_] _0_ d_lut_NOR2X1
A_1264_ [\u_mem_serial.clk_sys_prev\ _505_] _481_ d_lut_NOR2X1
A_1265_ [_481_] _480_ d_lut_INVX1
A_1266_ [\u_mem_serial.state\_1_ \u_mem_serial.state\_0_] _479_ d_lut_NOR2X1
A_1267_ [_479_] _478_ d_lut_INVX1
A_1268_ [_478_ _480_ \u_mem_serial.req_pending\] _477_ d_lut_OAI21X1
A_1269_ [\u_mem_serial.req_pending\] _476_ d_lut_INVX1
A_1270_ [_476_ _479_] _475_ d_lut_NAND2X1
A_1271_ [i_rst_n_bF$buf3 \u_cpu.state.ibus_cyc\] _474_ d_lut_NAND2X1
A_1272_ [_474_ _480_] _473_ d_lut_NOR2X1
A_1273_ [_473_] _472_ d_lut_INVX1
A_1274_ [_475_ _472_ _477_] _854_ d_lut_OAI21X1
A_1275_ [\u_mem_serial.req_pending\ _479_] _471_ d_lut_NAND2X1
A_1276_ [_471_ _472_ _508_] _853_ d_lut_OAI21X1
A_1277_ [\u_mem_serial.bit_count\_0_ \u_mem_serial.bit_count\_1_] _470_ d_lut_NOR2X1
A_1278_ [_470_] _469_ d_lut_INVX1
A_1279_ [_469_ _499_] _468_ d_lut_NOR2X1
A_1280_ [_468_] _467_ d_lut_INVX1
A_1281_ [_471_ _472_] _466_ d_lut_NOR2X1
A_1282_ [_466_] _465_ d_lut_INVX1
A_1283_ [_476_ _490_ \u_mem_serial.state\_1_] _464_ d_lut_AOI21X1
A_1284_ [\u_mem_serial.state\_0_ _473_ _464_] _463_ d_lut_OAI21X1
A_1285_ [_467_ _463_ _465_] _462_ d_lut_OAI21X1
A_1286_ [_486_ _467_ _498_ _462_] _852_ d_lut_OAI22X1
A_1287_ [\u_mem_serial.shift_reg\_14_] _461_ d_lut_INVX1
A_1288_ [\u_mem_serial.bit_count\_1_] _460_ d_lut_INVX1
A_1289_ [_485_ _460_ _463_] _459_ d_lut_AOI21X1
A_1290_ [\u_mem_serial.shift_reg\_13_ _489__bF$buf4 _459__bF$buf6] _458_ d_lut_NAND3X1
A_1291_ [_461_ _459__bF$buf5 _458_] _851_ d_lut_OAI21X1
A_1292_ [\u_rf_if.stream_active_bF$buf4\ \u_rf_if.ready_pulse\] _457_ d_lut_NOR2X1
A_1293_ [\u_rf_if.stream_cnt\_2_] _456_ d_lut_INVX1
A_1294_ [\u_rf_if.stream_cnt\_0_] _455_ d_lut_INVX1
A_1295_ [\u_rf_if.stream_cnt\_1_] _454_ d_lut_INVX1
A_1296_ [_455_ _454_] _453_ d_lut_NOR2X1
A_1297_ [_453_] _452_ d_lut_INVX1
A_1298_ [_456_ _452_] _451_ d_lut_NOR2X1
A_1299_ [\u_rf_if.stream_cnt\_3_ _451_] _450_ d_lut_NAND2X1
A_1300_ [_594_ _450_] _449_ d_lut_NOR2X1
A_1301_ [_449_ \u_rf_if.stream_cnt\_4_ _457_] _850_ d_lut_AOI21X1
A_1302_ [\u_mem_serial.state\_0_ _504_ _484_] _849_ d_lut_OAI21X1
A_1303_ [_493_ \u_mem_serial.state\_0_ \u_mem_serial.state\_1_] _448_ d_lut_AOI21X1
A_1304_ [_483_ _448_ _465_] _848_ d_lut_OAI21X1
A_1305_ [\u_mem_serial.shift_reg\_30_ _489__bF$buf3 _459__bF$buf4] _447_ d_lut_NAND3X1
A_1306_ [_482_ _459__bF$buf3 _447_] _847_ d_lut_OAI21X1
A_1307_ [\u_mem_serial.shift_reg\_0_ _459__bF$buf2] _446_ d_lut_NOR2X1
A_1308_ [\u_mem_serial.bit_count\_1_ _501_ \u_mem_serial.bit_count\_5_] _445_ d_lut_OAI21X1
A_1309_ [i_mem_miso _445_ _487_] _444_ d_lut_NAND3X1
A_1310_ [_459__bF$buf1 _444_ _446_] _846_ d_lut_AOI21X1
A_1311_ [_474_ _489__bF$buf2] _443_ d_lut_NOR2X1
A_1312_ [\u_mem_serial.shift_reg\_14_ _489__bF$buf1 _443_ \u_cpu.ctrl.pc\_0_] _442_ d_lut_AOI22X1
A_1313_ [\u_mem_serial.shift_reg\_15_ _459__bF$buf0] _441_ d_lut_NOR2X1
A_1314_ [_459__bF$buf6 _442_ _441_] _845_ d_lut_AOI21X1
A_1315_ [\u_mem_serial.shift_reg\_16_] _440_ d_lut_INVX1
A_1316_ [\u_mem_serial.shift_reg\_15_ _489__bF$buf0 _443_ \u_cpu.ctrl.o_ibus_adr\_1_] _439_ d_lut_AOI22X1
A_1317_ [_439_ _440_ _459__bF$buf5] _844_ d_lut_MUX2X1
A_1318_ [\u_mem_serial.shift_reg\_17_] _438_ d_lut_INVX1
A_1319_ [_440_ _489__bF$buf5] _437_ d_lut_NAND2X1
A_1320_ [\u_cpu.bufreg.data\_2_] _436_ d_lut_INVX1
A_1321_ [\u_cpu.ctrl.o_ibus_adr\_2_] _435_ d_lut_INVX1
A_1322_ [_436_ _435_ _474_] _434_ d_lut_MUX2X1
A_1323_ [_489__bF$buf4 _434_ _437_] _433_ d_lut_OAI21X1
A_1324_ [_433_ _438_ _459__bF$buf4] _843_ d_lut_MUX2X1
A_1325_ [\u_mem_serial.shift_reg\_18_] _432_ d_lut_INVX1
A_1326_ [_438_ _489__bF$buf3] _431_ d_lut_NAND2X1
A_1327_ [\u_cpu.bufreg.data\_3_] _430_ d_lut_INVX1
A_1328_ [\u_cpu.ctrl.o_ibus_adr\_3_] _429_ d_lut_INVX1
A_1329_ [_430_ _429_ _474_] _428_ d_lut_MUX2X1
A_1330_ [_489__bF$buf2 _428_ _431_] _427_ d_lut_OAI21X1
A_1331_ [_427_ _432_ _459__bF$buf3] _842_ d_lut_MUX2X1
A_1332_ [\u_mem_serial.shift_reg\_19_] _426_ d_lut_INVX1
A_1333_ [_432_ _489__bF$buf1] _425_ d_lut_NAND2X1
A_1334_ [\u_cpu.bufreg.data\_4_] _424_ d_lut_INVX1
A_1335_ [\u_cpu.ctrl.o_ibus_adr\_4_] _423_ d_lut_INVX1
A_1336_ [_424_ _423_ _474_] _422_ d_lut_MUX2X1
A_1337_ [_489__bF$buf0 _422_ _425_] _421_ d_lut_OAI21X1
A_1338_ [_421_ _426_ _459__bF$buf2] _841_ d_lut_MUX2X1
A_1339_ [\u_mem_serial.shift_reg\_20_] _420_ d_lut_INVX1
A_1340_ [_426_ _489__bF$buf5] _419_ d_lut_NAND2X1
A_1341_ [\u_cpu.bufreg.data\_5_] _418_ d_lut_INVX1
A_1342_ [\u_cpu.ctrl.o_ibus_adr\_5_] _417_ d_lut_INVX1
A_1343_ [_418_ _417_ _474_] _416_ d_lut_MUX2X1
A_1344_ [_489__bF$buf4 _416_ _419_] _415_ d_lut_OAI21X1
A_1345_ [_415_ _420_ _459__bF$buf1] _840_ d_lut_MUX2X1
A_1346_ [\u_mem_serial.shift_reg\_21_] _414_ d_lut_INVX1
A_1347_ [_420_ _489__bF$buf3] _413_ d_lut_NAND2X1
A_1348_ [\u_cpu.bufreg.data\_6_] _412_ d_lut_INVX1
A_1349_ [\u_cpu.ctrl.o_ibus_adr\_6_] _411_ d_lut_INVX1
A_1350_ [_412_ _411_ _474_] _410_ d_lut_MUX2X1
A_1351_ [_489__bF$buf2 _410_ _413_] _409_ d_lut_OAI21X1
A_1352_ [_409_ _414_ _459__bF$buf0] _839_ d_lut_MUX2X1
A_1353_ [\u_mem_serial.shift_reg\_22_] _408_ d_lut_INVX1
A_1354_ [_414_ _489__bF$buf1] _407_ d_lut_NAND2X1
A_1355_ [\u_cpu.bufreg.data\_7_] _406_ d_lut_INVX1
A_1356_ [\u_cpu.ctrl.o_ibus_adr\_7_] _405_ d_lut_INVX1
A_1357_ [_406_ _405_ _474_] _404_ d_lut_MUX2X1
A_1358_ [_489__bF$buf0 _404_ _407_] _403_ d_lut_OAI21X1
A_1359_ [_403_ _408_ _459__bF$buf6] _838_ d_lut_MUX2X1
A_1360_ [\u_mem_serial.shift_reg\_23_] _402_ d_lut_INVX1
A_1361_ [_408_ _489__bF$buf5] _401_ d_lut_NAND2X1
A_1362_ [\u_cpu.bufreg.data\_8_] _400_ d_lut_INVX1
A_1363_ [\u_cpu.ctrl.o_ibus_adr\_8_] _399_ d_lut_INVX1
A_1364_ [_400_ _399_ _474_] _398_ d_lut_MUX2X1
A_1365_ [_489__bF$buf4 _398_ _401_] _397_ d_lut_OAI21X1
A_1366_ [_397_ _402_ _459__bF$buf5] _837_ d_lut_MUX2X1
A_1367_ [\u_mem_serial.shift_reg\_24_] _396_ d_lut_INVX1
A_1368_ [_402_ _489__bF$buf3] _395_ d_lut_NAND2X1
A_1369_ [\u_cpu.bufreg.data\_9_] _394_ d_lut_INVX1
A_1370_ [\u_cpu.ctrl.o_ibus_adr\_9_] _393_ d_lut_INVX1
A_1371_ [_394_ _393_ _474_] _392_ d_lut_MUX2X1
A_1372_ [_489__bF$buf2 _392_ _395_] _391_ d_lut_OAI21X1
A_1373_ [_391_ _396_ _459__bF$buf4] _836_ d_lut_MUX2X1
A_1374_ [\u_mem_serial.shift_reg\_25_ _459__bF$buf3] _390_ d_lut_NOR2X1
A_1375_ [_396_ _489__bF$buf1] _389_ d_lut_NAND2X1
A_1376_ [\u_cpu.bufreg.data\_10_] _388_ d_lut_INVX1
A_1377_ [\u_cpu.ctrl.o_ibus_adr\_10_] _387_ d_lut_INVX1
A_1378_ [_388_ _387_ _474_] _386_ d_lut_MUX2X1
A_1379_ [_489__bF$buf0 _386_ _389_] _385_ d_lut_OAI21X1
A_1380_ [_459__bF$buf2 _385_ _390_] _835_ d_lut_AOI21X1
A_1381_ [\u_mem_serial.shift_reg\_25_ _488_] _384_ d_lut_NOR2X1
A_1382_ [\u_mem_serial.shift_reg\_26_ _459__bF$buf1] _383_ d_lut_NOR2X1
A_1383_ [_459__bF$buf0 _384_ _383_] _834_ d_lut_AOI21X1
A_1384_ [\u_mem_serial.shift_reg\_26_ _488_] _382_ d_lut_NOR2X1
A_1385_ [\u_mem_serial.shift_reg\_27_ _459__bF$buf6] _381_ d_lut_NOR2X1
A_1386_ [_459__bF$buf5 _382_ _381_] _833_ d_lut_AOI21X1
A_1387_ [\u_mem_serial.shift_reg\_27_ _488_] _380_ d_lut_NOR2X1
A_1388_ [\u_mem_serial.shift_reg\_28_ _459__bF$buf4] _379_ d_lut_NOR2X1
A_1389_ [_459__bF$buf3 _380_ _379_] _832_ d_lut_AOI21X1
A_1390_ [\u_mem_serial.shift_reg\_28_ _488_] _378_ d_lut_NOR2X1
A_1391_ [\u_mem_serial.shift_reg\_29_ _459__bF$buf2] _377_ d_lut_NOR2X1
A_1392_ [_459__bF$buf1 _378_ _377_] _831_ d_lut_AOI21X1
A_1393_ [\u_mem_serial.shift_reg\_29_ _489__bF$buf5 _443_] _376_ d_lut_AOI21X1
A_1394_ [\u_mem_serial.shift_reg\_30_ _459__bF$buf0] _375_ d_lut_NOR2X1
A_1395_ [_459__bF$buf6 _376_ _375_] _830_ d_lut_AOI21X1
A_1396_ [\u_mem_serial.shift_reg\_1_] _374_ d_lut_INVX1
A_1397_ [\u_mem_serial.shift_reg\_0_ _489__bF$buf4 _459__bF$buf5] _373_ d_lut_NAND3X1
A_1398_ [_374_ _459__bF$buf4 _373_] _829_ d_lut_OAI21X1
A_1399_ [\u_mem_serial.shift_reg\_2_] _372_ d_lut_INVX1
A_1400_ [\u_mem_serial.shift_reg\_1_ _489__bF$buf3 _459__bF$buf3] _371_ d_lut_NAND3X1
A_1401_ [_372_ _459__bF$buf2 _371_] _828_ d_lut_OAI21X1
A_1402_ [\u_mem_serial.shift_reg\_3_] _370_ d_lut_INVX1
A_1403_ [\u_mem_serial.shift_reg\_2_ _489__bF$buf2 _459__bF$buf1] _369_ d_lut_NAND3X1
A_1404_ [_370_ _459__bF$buf0 _369_] _827_ d_lut_OAI21X1
A_1405_ [\u_mem_serial.shift_reg\_4_] _368_ d_lut_INVX1
A_1406_ [\u_mem_serial.shift_reg\_3_ _489__bF$buf1 _459__bF$buf6] _367_ d_lut_NAND3X1
A_1407_ [_368_ _459__bF$buf5 _367_] _826_ d_lut_OAI21X1
A_1408_ [\u_mem_serial.shift_reg\_5_] _366_ d_lut_INVX1
A_1409_ [\u_mem_serial.shift_reg\_4_ _489__bF$buf0 _459__bF$buf4] _365_ d_lut_NAND3X1
A_1410_ [_366_ _459__bF$buf3 _365_] _825_ d_lut_OAI21X1
A_1411_ [\u_mem_serial.shift_reg\_6_] _364_ d_lut_INVX1
A_1412_ [\u_mem_serial.shift_reg\_5_ _489__bF$buf5 _459__bF$buf2] _363_ d_lut_NAND3X1
A_1413_ [_364_ _459__bF$buf1 _363_] _824_ d_lut_OAI21X1
A_1414_ [\u_mem_serial.shift_reg\_7_] _362_ d_lut_INVX1
A_1415_ [\u_mem_serial.shift_reg\_6_ _489__bF$buf4 _459__bF$buf0] _361_ d_lut_NAND3X1
A_1416_ [_362_ _459__bF$buf6 _361_] _823_ d_lut_OAI21X1
A_1417_ [\u_mem_serial.shift_reg\_8_] _360_ d_lut_INVX1
A_1418_ [\u_mem_serial.shift_reg\_7_ _489__bF$buf3 _459__bF$buf5] _359_ d_lut_NAND3X1
A_1419_ [_360_ _459__bF$buf4 _359_] _822_ d_lut_OAI21X1
A_1420_ [\u_mem_serial.shift_reg\_9_] _358_ d_lut_INVX1
A_1421_ [\u_mem_serial.shift_reg\_8_ _489__bF$buf2 _459__bF$buf3] _357_ d_lut_NAND3X1
A_1422_ [_358_ _459__bF$buf2 _357_] _821_ d_lut_OAI21X1
A_1423_ [\u_mem_serial.shift_reg\_10_] _356_ d_lut_INVX1
A_1424_ [\u_mem_serial.shift_reg\_9_ _489__bF$buf1 _459__bF$buf1] _355_ d_lut_NAND3X1
A_1425_ [_356_ _459__bF$buf0 _355_] _820_ d_lut_OAI21X1
A_1426_ [\u_mem_serial.shift_reg\_11_] _354_ d_lut_INVX1
A_1427_ [\u_mem_serial.shift_reg\_10_ _489__bF$buf0 _459__bF$buf6] _353_ d_lut_NAND3X1
A_1428_ [_354_ _459__bF$buf5 _353_] _819_ d_lut_OAI21X1
A_1429_ [\u_mem_serial.shift_reg\_12_] _352_ d_lut_INVX1
A_1430_ [\u_mem_serial.shift_reg\_11_ _489__bF$buf5 _459__bF$buf4] _351_ d_lut_NAND3X1
A_1431_ [_352_ _459__bF$buf3 _351_] _818_ d_lut_OAI21X1
A_1432_ [\u_mem_serial.shift_reg\_13_] _350_ d_lut_INVX1
A_1433_ [\u_mem_serial.shift_reg\_12_ _489__bF$buf4 _459__bF$buf2] _349_ d_lut_NAND3X1
A_1434_ [_350_ _459__bF$buf1 _349_] _817_ d_lut_OAI21X1
A_1435_ [_463_] _348_ d_lut_INVX2
A_1436_ [_348_ _497_ _466_] _347_ d_lut_AOI21X1
A_1437_ [_497_ _348_ _347_] _816_ d_lut_OAI21X1
A_1438_ [_460_ _496_] _346_ d_lut_NOR2X1
A_1439_ [_346_ _347_] _345_ d_lut_NAND2X1
A_1440_ [_488_ _469_ _345_] _815_ d_lut_OAI21X1
A_1441_ [\u_mem_serial.bit_count\_2_] _344_ d_lut_INVX1
A_1442_ [\u_mem_serial.bit_count\_2_ _469_] _343_ d_lut_NOR2X1
A_1443_ [_344_ _470_] _342_ d_lut_NOR2X1
A_1444_ [_342_ _343_ _489__bF$buf3] _597_ d_lut_OAI21X1
A_1445_ [_344_ _348_ _597_] _814_ d_lut_OAI21X1
A_1446_ [_503_ _343_] _719_ d_lut_NAND2X1
A_1447_ [_719_] _732_ d_lut_INVX1
A_1448_ [_503_ _343_] _734_ d_lut_NOR2X1
A_1449_ [_734_ _732_ _489__bF$buf2] _735_ d_lut_OAI21X1
A_1450_ [_503_ _348_ _735_] _813_ d_lut_OAI21X1
A_1451_ [_719_ _463_ \u_mem_serial.bit_count\_4_] _736_ d_lut_OAI21X1
A_1452_ [_732_ _348_] _741_ d_lut_NAND2X1
A_1453_ [\u_mem_serial.bit_count\_4_ _741_] _855_ d_lut_NOR2X1
A_1454_ [_466_ _855_] _856_ d_lut_NOR2X1
A_1455_ [_736_ _856_] _812_ d_lut_NAND2X1
A_1456_ [\u_mem_serial.bit_count\_5_] _860_ d_lut_INVX1
A_1457_ [_462_] _861_ d_lut_INVX1
A_1458_ [_860_ _855_ _861_] _811_ d_lut_OAI21X1
A_1459_ [\u_rf_if.prefetch_active\] _862_ d_lut_INVX2
A_1460_ [_862_ _592_] _810_ d_lut_NOR2X1
A_1461_ [\u_rf_if.issue_reg\_3_] _863_ d_lut_INVX1
A_1462_ [raddr_7_ _810_] _864_ d_lut_NOR2X1
A_1463_ [_863_ _810_ _864_] _809_ d_lut_AOI21X1
A_1464_ [i_rf_miso] _865_ d_lut_INVX1
A_1465_ [\u_rf_if.tx_state\_1_] _866_ d_lut_INVX1
A_1466_ [\u_rf_if.tx_state\_0_] _867_ d_lut_INVX1
A_1467_ [_866_ _867_] _868_ d_lut_NOR2X1
A_1468_ [\u_rf_if.tx_state\_4_] _869_ d_lut_INVX1
A_1469_ [\u_rf_if.tx_state\_3_ \u_rf_if.tx_state\_2_] _870_ d_lut_NOR2X1
A_1470_ [_869_ _870_] _871_ d_lut_NAND2X1
A_1471_ [_871_] _872_ d_lut_INVX1
A_1472_ [_872_ _868_] _873_ d_lut_AND2X2
A_1473_ [\u_rf_if.shift_rx\_1_ _873_ i_rst_n_bF$buf2] _874_ d_lut_OAI21X1
A_1474_ [_865_ _873_ _874_] _808_ d_lut_AOI21X1
A_1475_ [\u_rf_if.wen0_r\] _875_ d_lut_INVX1
A_1476_ [\u_rf_if.rtrig1\] _876_ d_lut_INVX1
A_1477_ [_875_ _876_] _877_ d_lut_NOR2X1
A_1478_ [_877_] _878_ d_lut_INVX1
A_1479_ [_866_ _872_] _879_ d_lut_NAND2X1
A_1480_ [\u_rf_if.tx_state\_0_ _879_] _880_ d_lut_NOR2X1
A_1481_ [_521_ \u_rf_if.last_req_key\_6_] _881_ d_lut_AND2X2
A_1482_ [\u_rf_if.last_req_key\_6_ _521_] _882_ d_lut_NOR2X1
A_1483_ [_882_ _881_] _883_ d_lut_NOR2X1
A_1484_ [_518_] _884_ d_lut_INVX1
A_1485_ [_884_ \u_rf_if.last_req_key\_4_] _885_ d_lut_OR2X2
A_1486_ [\u_rf_if.last_req_key\_4_ _884_] _886_ d_lut_NAND2X1
A_1487_ [\u_rf_if.last_req_key\_5_ _515_] _887_ d_lut_NAND2X1
A_1488_ [_515_ \u_rf_if.last_req_key\_5_] _888_ d_lut_OR2X2
A_1489_ [_887_ _888_] _889_ d_lut_NAND2X1
A_1490_ [_885_ _886_ _889_] _890_ d_lut_AOI21X1
A_1491_ [\u_rf_if.last_req_key\_3_] _891_ d_lut_INVX1
A_1492_ [_520_ raddr_3_] _892_ d_lut_OR2X2
A_1493_ [\u_rf_if.o_waddr\_3_ ren _892_] _893_ d_lut_OAI21X1
A_1494_ [_891_ _893_] _894_ d_lut_NOR2X1
A_1495_ [_893_] _895_ d_lut_INVX1
A_1496_ [\u_rf_if.last_req_key\_3_ _895_] _896_ d_lut_NOR2X1
A_1497_ [_520_ raddr_1_] _897_ d_lut_OR2X2
A_1498_ [\u_rf_if.o_waddr\_1_ ren _897_] _898_ d_lut_OAI21X1
A_1499_ [\u_rf_if.last_req_key\_8_] _899_ d_lut_INVX1
A_1500_ [ren _899_] _900_ d_lut_NOR2X1
A_1501_ [\u_rf_if.last_req_key\_8_ _520_] _901_ d_lut_NOR2X1
A_1502_ [_900_ _901_] _902_ d_lut_NOR2X1
A_1503_ [\u_rf_if.last_req_key\_1_ _898_ _902_] _903_ d_lut_OAI21X1
A_1504_ [\u_rf_if.last_req_key\_9_ _877_] _904_ d_lut_NAND2X1
A_1505_ [_877_ \u_rf_if.last_req_key\_9_] _905_ d_lut_OR2X2
A_1506_ [_904_ _905_ _903_] _906_ d_lut_AOI21X1
A_1507_ [\u_rf_if.req_seen\] _907_ d_lut_INVX1
A_1508_ [_898_ \u_rf_if.last_req_key\_1_ _907_] _908_ d_lut_AOI21X1
A_1509_ [\u_rf_if.last_req_key\_2_] _909_ d_lut_INVX1
A_1510_ [raddr_2_] _910_ d_lut_INVX1
A_1511_ [ren _910_] _911_ d_lut_NAND2X1
A_1512_ [\u_rf_if.o_waddr\_2_ ren _911_] _912_ d_lut_OAI21X1
A_1513_ [_912_] _913_ d_lut_INVX1
A_1514_ [_909_ _913_] _914_ d_lut_NAND2X1
A_1515_ [\u_rf_if.last_req_key\_2_ _912_] _915_ d_lut_NAND2X1
A_1516_ [_914_ _915_ _908_] _916_ d_lut_NAND3X1
A_1517_ [\u_rf_if.launch_pending\] _917_ d_lut_INVX1
A_1518_ [\u_rf_if.last_req_key\_0_] _918_ d_lut_INVX1
A_1519_ [raddr_0_] _919_ d_lut_INVX1
A_1520_ [ren _919_] _920_ d_lut_NAND2X1
A_1521_ [\u_rf_if.o_waddr\_0_ ren _920_] _921_ d_lut_OAI21X1
A_1522_ [_921_] _922_ d_lut_INVX1
A_1523_ [_918_ _922_] _923_ d_lut_NAND2X1
A_1524_ [\u_rf_if.last_req_key\_0_ _921_] _924_ d_lut_NAND2X1
A_1525_ [_917_ _924_ _923_] _925_ d_lut_NAND3X1
A_1526_ [_925_ _916_] _926_ d_lut_NOR2X1
A_1527_ [_926_ _906_] _927_ d_lut_AND2X2
A_1528_ [_894_ _896_ _927_] _928_ d_lut_OAI21X1
A_1529_ [_513_ \u_rf_if.last_req_key\_7_] _929_ d_lut_OR2X2
A_1530_ [\u_rf_if.last_req_key\_7_ _513_] _930_ d_lut_NAND2X1
A_1531_ [_930_ _929_] _931_ d_lut_NAND2X1
A_1532_ [_928_ _931_] _932_ d_lut_NOR2X1
A_1533_ [_890_ _932_] _933_ d_lut_AND2X2
A_1534_ [_520_ _878_ _933_ _883_] _934_ d_lut_AOI22X1
A_1535_ [_880_ _934_] _935_ d_lut_NAND2X1
A_1536_ [_935_] _936_ d_lut_INVX4
A_1537_ [\u_rf_if.last_req_key\_9_ _936_ i_rst_n_bF$buf1] _937_ d_lut_OAI21X1
A_1538_ [_878_ _936_ _937_] _807_ d_lut_AOI21X1
A_1539_ [_494_ _488_ _465_] _806_ d_lut_OAI21X1
A_1540_ [\u_rf_if.tx_state\_1_ _867_ _872_] _938_ d_lut_NAND3X1
A_1541_ [_938_] _939_ d_lut_INVX1
A_1542_ [\u_rf_if.shift_rx\_0_ _939_ i_rst_n_bF$buf0] _940_ d_lut_OAI21X1
A_1543_ [_865_ _939_ _940_] _805_ d_lut_AOI21X1
A_1544_ [i_rst_n_bF$buf3] _941_ d_lut_INVX1
A_1545_ [\u_rf_if.tx_state\_1_ \u_rf_if.tx_state\_0_] _942_ d_lut_NOR2X1
A_1546_ [_870_ _942_] _943_ d_lut_NAND2X1
A_1547_ [\u_rf_if.tx_state\_4_ _943_] _944_ d_lut_NAND2X1
A_1548_ [_941_ _944_] _804_ d_lut_NOR2X1
A_1549_ [\u_rf_if.read_buf0\_0_] _945_ d_lut_INVX1
A_1550_ [\u_rf_if.read_buf0\_1_ \u_rf_if.read_buf0\_2_ \u_rf_if.stream_active_bF$buf3\] _946_ d_lut_MUX2X1
A_1551_ [_946_ _945_ _586__bF$buf3] _803_ d_lut_MUX2X1
A_1552_ [\u_rf_if.read_buf0\_2_ \u_rf_if.read_buf0\_3_ \u_rf_if.stream_active_bF$buf2\] _947_ d_lut_MUX2X1
A_1553_ [\u_rf_if.read_buf0\_1_ _586__bF$buf2] _948_ d_lut_NOR2X1
A_1554_ [_586__bF$buf1 _947_ _948_] _802_ d_lut_AOI21X1
A_1555_ [\u_rf_if.read_buf0\_2_ _585_] _949_ d_lut_NAND2X1
A_1556_ [\u_rf_if.read_buf0\_4_] _950_ d_lut_INVX1
A_1557_ [_594_ _950_] _951_ d_lut_NAND2X1
A_1558_ [_594_ \u_rf_if.read_buf0\_3_ _951_] _952_ d_lut_OAI21X1
A_1559_ [_585_ _952_ _949_] _801_ d_lut_OAI21X1
A_1560_ [\u_rf_if.read_buf0\_3_ _585_] _953_ d_lut_NAND2X1
A_1561_ [\u_rf_if.stream_active_bF$buf1\ _950_] _954_ d_lut_NAND2X1
A_1562_ [\u_rf_if.stream_active_bF$buf0\ \u_rf_if.read_buf0\_5_ _954_] _955_ d_lut_OAI21X1
A_1563_ [_585_ _955_ _953_] _800_ d_lut_OAI21X1
A_1564_ [\u_rf_if.read_buf0\_5_] _956_ d_lut_INVX1
A_1565_ [\u_rf_if.stream_active_bF$buf6\ _956_] _957_ d_lut_NAND2X1
A_1566_ [\u_rf_if.stream_active_bF$buf5\ \u_rf_if.read_buf0\_6_ _957_] _958_ d_lut_OAI21X1
A_1567_ [_958_ _950_ _586__bF$buf0] _799_ d_lut_MUX2X1
A_1568_ [\u_rf_if.read_buf0\_6_] _959_ d_lut_INVX1
A_1569_ [\u_rf_if.stream_active_bF$buf4\ _959_] _960_ d_lut_NAND2X1
A_1570_ [\u_rf_if.stream_active_bF$buf3\ \u_rf_if.read_buf0\_7_ _960_] _961_ d_lut_OAI21X1
A_1571_ [_961_ _956_ _586__bF$buf4] _798_ d_lut_MUX2X1
A_1572_ [\u_rf_if.read_buf0\_7_] _962_ d_lut_INVX1
A_1573_ [\u_rf_if.stream_active_bF$buf2\ _962_] _963_ d_lut_NAND2X1
A_1574_ [\u_rf_if.stream_active_bF$buf1\ \u_rf_if.read_buf0\_8_ _963_] _964_ d_lut_OAI21X1
A_1575_ [_964_ _959_ _586__bF$buf3] _797_ d_lut_MUX2X1
A_1576_ [\u_rf_if.read_buf0\_8_] _965_ d_lut_INVX1
A_1577_ [\u_rf_if.stream_active_bF$buf0\ _965_] _966_ d_lut_NAND2X1
A_1578_ [\u_rf_if.stream_active_bF$buf6\ \u_rf_if.read_buf0\_9_ _966_] _967_ d_lut_OAI21X1
A_1579_ [_967_ _962_ _586__bF$buf2] _796_ d_lut_MUX2X1
A_1580_ [\u_rf_if.read_buf0\_9_] _968_ d_lut_INVX1
A_1581_ [\u_rf_if.stream_active_bF$buf5\ _968_] _969_ d_lut_NAND2X1
A_1582_ [\u_rf_if.stream_active_bF$buf4\ \u_rf_if.read_buf0\_10_ _969_] _970_ d_lut_OAI21X1
A_1583_ [_970_ _965_ _586__bF$buf1] _795_ d_lut_MUX2X1
A_1584_ [\u_rf_if.read_buf0\_10_] _971_ d_lut_INVX1
A_1585_ [\u_rf_if.stream_active_bF$buf3\ _971_] _972_ d_lut_NAND2X1
A_1586_ [\u_rf_if.stream_active_bF$buf2\ \u_rf_if.read_buf0\_11_ _972_] _973_ d_lut_OAI21X1
A_1587_ [_973_ _968_ _586__bF$buf0] _794_ d_lut_MUX2X1
A_1588_ [\u_rf_if.read_buf0\_11_] _974_ d_lut_INVX1
A_1589_ [\u_rf_if.stream_active_bF$buf1\ _974_] _975_ d_lut_NAND2X1
A_1590_ [\u_rf_if.stream_active_bF$buf0\ \u_rf_if.read_buf0\_12_ _975_] _976_ d_lut_OAI21X1
A_1591_ [_976_ _971_ _586__bF$buf4] _793_ d_lut_MUX2X1
A_1592_ [\u_rf_if.read_buf0\_12_] _977_ d_lut_INVX1
A_1593_ [\u_rf_if.stream_active_bF$buf6\ _977_] _978_ d_lut_NAND2X1
A_1594_ [\u_rf_if.stream_active_bF$buf5\ \u_rf_if.read_buf0\_13_ _978_] _979_ d_lut_OAI21X1
A_1595_ [_979_ _974_ _586__bF$buf3] _792_ d_lut_MUX2X1
A_1596_ [\u_rf_if.read_buf0\_13_] _980_ d_lut_INVX1
A_1597_ [\u_rf_if.stream_active_bF$buf4\ _980_] _981_ d_lut_NAND2X1