* XSpice netlist created from SPICE and liberty sources by spi2xspice.py
*SPICE netlist created from verilog structural netlist module my_mcu_top by vlog2Spice (qflow)
** Start of included library /usr/local/share/qflow/tech/etri050/etri050_stdcells.sp
* NGSPICE file created from khu_etri050_stdcells.ext - technology: scmos
** End of included library /usr/local/share/qflow/tech/etri050/etri050_stdcells.sp
.subckt my_mcu_top a_vdd a_gnd a_i_clk_fast a_i_clk_sys_ext a_i_rst_n a_o_mem_sync a_o_mem_sck a_o_mem_mosi a_i_mem_miso
ABUFX2_insert94 [mem_ibus_ack] mem_ibus_ack_bF$buf0 d_lut_BUFX2
ABUFX2_insert93 [mem_ibus_ack] mem_ibus_ack_bF$buf1 d_lut_BUFX2
ABUFX2_insert92 [mem_ibus_ack] mem_ibus_ack_bF$buf2 d_lut_BUFX2
ABUFX2_insert91 [mem_ibus_ack] mem_ibus_ack_bF$buf3 d_lut_BUFX2
ABUFX2_insert90 [mem_ibus_ack] mem_ibus_ack_bF$buf4 d_lut_BUFX2
ABUFX2_insert89 [mem_ibus_ack] mem_ibus_ack_bF$buf5 d_lut_BUFX2
ABUFX2_insert88 [mem_ibus_ack] mem_ibus_ack_bF$buf6 d_lut_BUFX2
ABUFX2_insert87 [_597_] _597__bF$buf0 d_lut_BUFX2
ABUFX2_insert86 [_597_] _597__bF$buf1 d_lut_BUFX2
ABUFX2_insert85 [_597_] _597__bF$buf2 d_lut_BUFX2
ABUFX2_insert84 [_597_] _597__bF$buf3 d_lut_BUFX2
ABUFX2_insert83 [_597_] _597__bF$buf4 d_lut_BUFX2
ABUFX2_insert82 [_465_] _465__bF$buf0 d_lut_BUFX2
ABUFX2_insert81 [_465_] _465__bF$buf1 d_lut_BUFX2
ABUFX2_insert80 [_465_] _465__bF$buf2 d_lut_BUFX2
ABUFX2_insert79 [_465_] _465__bF$buf3 d_lut_BUFX2
ABUFX2_insert78 [_568_] _568__bF$buf0 d_lut_BUFX2
ABUFX2_insert77 [_568_] _568__bF$buf1 d_lut_BUFX2
ABUFX2_insert76 [_568_] _568__bF$buf2 d_lut_BUFX2
ABUFX2_insert75 [_568_] _568__bF$buf3 d_lut_BUFX2
ABUFX2_insert74 [_568_] _568__bF$buf4 d_lut_BUFX2
ABUFX2_insert73 [_568_] _568__bF$buf5 d_lut_BUFX2
ABUFX2_insert72 [_492_] _492__bF$buf0 d_lut_BUFX2
ABUFX2_insert71 [_492_] _492__bF$buf1 d_lut_BUFX2
ABUFX2_insert70 [_492_] _492__bF$buf2 d_lut_BUFX2
ABUFX2_insert69 [_492_] _492__bF$buf3 d_lut_BUFX2
ABUFX2_insert68 [_184_] _184__bF$buf0 d_lut_BUFX2
ABUFX2_insert67 [_184_] _184__bF$buf1 d_lut_BUFX2
ABUFX2_insert66 [_184_] _184__bF$buf2 d_lut_BUFX2
ABUFX2_insert65 [_184_] _184__bF$buf3 d_lut_BUFX2
ABUFX2_insert64 [_184_] _184__bF$buf4 d_lut_BUFX2
ABUFX2_insert63 [mem_dbus_ack] mem_dbus_ack_bF$buf0 d_lut_BUFX2
ABUFX2_insert62 [mem_dbus_ack] mem_dbus_ack_bF$buf1 d_lut_BUFX2
ABUFX2_insert61 [mem_dbus_ack] mem_dbus_ack_bF$buf2 d_lut_BUFX2
ABUFX2_insert60 [mem_dbus_ack] mem_dbus_ack_bF$buf3 d_lut_BUFX2
ABUFX2_insert59 [mem_dbus_ack] mem_dbus_ack_bF$buf4 d_lut_BUFX2
ABUFX2_insert58 [mem_dbus_ack] mem_dbus_ack_bF$buf5 d_lut_BUFX2
ABUFX2_insert57 [mem_dbus_ack] mem_dbus_ack_bF$buf6 d_lut_BUFX2
ACLKBUF1_insert56 [i_clk_fast] i_clk_fast_bF$buf0 d_lut_CLKBUF1
ACLKBUF1_insert55 [i_clk_fast] i_clk_fast_bF$buf1 d_lut_CLKBUF1
ACLKBUF1_insert54 [i_clk_fast] i_clk_fast_bF$buf2 d_lut_CLKBUF1
ACLKBUF1_insert53 [i_clk_fast] i_clk_fast_bF$buf3 d_lut_CLKBUF1
ACLKBUF1_insert52 [i_clk_fast] i_clk_fast_bF$buf4 d_lut_CLKBUF1
ACLKBUF1_insert51 [i_clk_fast] i_clk_fast_bF$buf5 d_lut_CLKBUF1
ACLKBUF1_insert50 [i_clk_fast] i_clk_fast_bF$buf6 d_lut_CLKBUF1
ACLKBUF1_insert49 [i_clk_sys_ext] i_clk_sys_ext_bF$buf0 d_lut_CLKBUF1
ACLKBUF1_insert48 [i_clk_sys_ext] i_clk_sys_ext_bF$buf1 d_lut_CLKBUF1
ACLKBUF1_insert47 [i_clk_sys_ext] i_clk_sys_ext_bF$buf2 d_lut_CLKBUF1
ACLKBUF1_insert46 [i_clk_sys_ext] i_clk_sys_ext_bF$buf3 d_lut_CLKBUF1
ACLKBUF1_insert45 [i_clk_sys_ext] i_clk_sys_ext_bF$buf4 d_lut_CLKBUF1
ACLKBUF1_insert44 [i_clk_sys_ext] i_clk_sys_ext_bF$buf5 d_lut_CLKBUF1
ACLKBUF1_insert43 [i_clk_sys_ext] i_clk_sys_ext_bF$buf6 d_lut_CLKBUF1
ACLKBUF1_insert42 [i_clk_sys_ext] i_clk_sys_ext_bF$buf7 d_lut_CLKBUF1
ACLKBUF1_insert41 [i_clk_sys_ext] i_clk_sys_ext_bF$buf8 d_lut_CLKBUF1
ACLKBUF1_insert40 [i_clk_sys_ext] i_clk_sys_ext_bF$buf9 d_lut_CLKBUF1
ACLKBUF1_insert39 [i_clk_sys_ext] i_clk_sys_ext_bF$buf10 d_lut_CLKBUF1
ACLKBUF1_insert38 [i_clk_sys_ext] i_clk_sys_ext_bF$buf11 d_lut_CLKBUF1
ACLKBUF1_insert37 [i_clk_sys_ext] i_clk_sys_ext_bF$buf12 d_lut_CLKBUF1
ACLKBUF1_insert36 [i_clk_sys_ext] i_clk_sys_ext_bF$buf13 d_lut_CLKBUF1
ACLKBUF1_insert35 [i_clk_sys_ext] i_clk_sys_ext_bF$buf14 d_lut_CLKBUF1
ABUFX2_insert34 [_1091_] _1091__bF$buf0 d_lut_BUFX2
ABUFX2_insert33 [_1091_] _1091__bF$buf1 d_lut_BUFX2
ABUFX2_insert32 [_1091_] _1091__bF$buf2 d_lut_BUFX2
ABUFX2_insert31 [_1091_] _1091__bF$buf3 d_lut_BUFX2
ABUFX2_insert30 [_1091_] _1091__bF$buf4 d_lut_BUFX2
ABUFX2_insert29 [_1171_] _1171__bF$buf0 d_lut_BUFX2
ABUFX2_insert28 [_1171_] _1171__bF$buf1 d_lut_BUFX2
ABUFX2_insert27 [_1171_] _1171__bF$buf2 d_lut_BUFX2
ABUFX2_insert26 [_1171_] _1171__bF$buf3 d_lut_BUFX2
ABUFX2_insert25 [_561_] _561__bF$buf0 d_lut_BUFX2
ABUFX2_insert24 [_561_] _561__bF$buf1 d_lut_BUFX2
ABUFX2_insert23 [_561_] _561__bF$buf2 d_lut_BUFX2
ABUFX2_insert22 [_561_] _561__bF$buf3 d_lut_BUFX2
ABUFX2_insert21 [_561_] _561__bF$buf4 d_lut_BUFX2
ABUFX2_insert20 [_179_] _179__bF$buf0 d_lut_BUFX2
ABUFX2_insert19 [_179_] _179__bF$buf1 d_lut_BUFX2
ABUFX2_insert18 [_179_] _179__bF$buf2 d_lut_BUFX2
ABUFX2_insert17 [_179_] _179__bF$buf3 d_lut_BUFX2
ABUFX2_insert16 [_179_] _179__bF$buf4 d_lut_BUFX2
ABUFX2_insert15 [_179_] _179__bF$buf5 d_lut_BUFX2
ABUFX2_insert14 [_1174_] _1174__bF$buf0 d_lut_BUFX2
ABUFX2_insert13 [_1174_] _1174__bF$buf1 d_lut_BUFX2
ABUFX2_insert12 [_1174_] _1174__bF$buf2 d_lut_BUFX2
ABUFX2_insert11 [_1174_] _1174__bF$buf3 d_lut_BUFX2
ABUFX2_insert10 [_1174_] _1174__bF$buf4 d_lut_BUFX2
ABUFX2_insert9 [_185_] _185__bF$buf0 d_lut_BUFX2
ABUFX2_insert8 [_185_] _185__bF$buf1 d_lut_BUFX2
ABUFX2_insert7 [_185_] _185__bF$buf2 d_lut_BUFX2
ABUFX2_insert6 [_185_] _185__bF$buf3 d_lut_BUFX2
ABUFX2_insert5 [_1013_] _1013__bF$buf0 d_lut_BUFX2
ABUFX2_insert4 [_1013_] _1013__bF$buf1 d_lut_BUFX2
ABUFX2_insert3 [_1013_] _1013__bF$buf2 d_lut_BUFX2
ABUFX2_insert2 [_1013_] _1013__bF$buf3 d_lut_BUFX2
ABUFX2_insert1 [_1013_] _1013__bF$buf4 d_lut_BUFX2
ABUFX2_insert0 [_1013_] _1013__bF$buf5 d_lut_BUFX2
A_1243_ [_1196_] o_mem_sync d_lut_BUFX2
A_1244_ [_1194_] o_mem_sck d_lut_BUFX2
A_1245_ [_0_] o_mem_mosi d_lut_BUFX2
A_1246_ [\u_cpu.state.init_done\] _635_ d_lut_INVX1
A_1247_ [\u_cpu.decode.co_mem_word\] _634_ d_lut_INVX1
A_1248_ [_634_ _636_] _633_ d_lut_NOR2X1
A_1249_ [\u_cpu.decode.opcode\_0_ \u_cpu.branch_op\] _632_ d_lut_NOR2X1
A_1250_ [\u_cpu.decode.co_mem_word\ \u_cpu.bne_or_bge\ _632_] _631_ d_lut_OAI21X1
A_1251_ [_633_ _631_ \u_cpu.decode.opcode\_2_] _630_ d_lut_OAI21X1
A_1252_ [_635_ _630_] _629_ d_lut_NAND2X1
A_1253_ [_629_] _628_ d_lut_INVX1
A_1254_ [\u_cpu.bufreg2.i_bytecnt\_1_] _627_ d_lut_INVX2
A_1255_ [\u_cpu.state.cnt_r\_3_] _626_ d_lut_INVX2
A_1256_ [\u_cpu.bufreg2.i_bytecnt\_0_ \u_cpu.state.o_cnt\_2_] _625_ d_lut_NAND2X1
A_1257_ [_626_ _625_] _624_ d_lut_NOR2X1
A_1258_ [_624_] _623_ d_lut_INVX2
A_1259_ [_627_ _623_] _622_ d_lut_NOR2X1
A_1260_ [_622_] _621_ d_lut_INVX1
A_1261_ [_636_ _621_ _628_] _620_ d_lut_OAI21X1
A_1262_ [_620_] _619_ d_lut_INVX1
A_1263_ [_637_ _619_] _618_ d_lut_NOR2X1
A_1264_ [\u_cpu.bufreg2.dhi\_5_] _617_ d_lut_INVX1
A_1265_ [\u_cpu.bufreg.i_shamt\_2_] _616_ d_lut_INVX1
A_1266_ [\u_cpu.bufreg.i_shamt\_0_ \u_cpu.bufreg.i_shamt\_1_] _615_ d_lut_NOR2X1
A_1267_ [_616_ _615_] _614_ d_lut_NAND2X1
A_1268_ [\u_cpu.bufreg2.dhi\_3_ _614_] _613_ d_lut_NOR2X1
A_1269_ [_613_] _612_ d_lut_INVX1
A_1270_ [\u_cpu.bufreg2.dhi\_4_ _612_] _611_ d_lut_NOR2X1
A_1271_ [_617_ _611_] _610_ d_lut_NAND2X1
A_1272_ [\u_cpu.bufreg2.dhi\_4_ _612_ \u_cpu.bufreg2.dhi\_5_] _609_ d_lut_OAI21X1
A_1273_ [_610_ _609_] _608_ d_lut_AND2X2
A_1274_ [_608_ _639_ _618_] _607_ d_lut_MUX2X1
A_1275_ [_635_ _637_] _606_ d_lut_NOR2X1
A_1276_ [\u_cpu.bufreg.i_right_shift_op\ _607_ _606_] _605_ d_lut_OAI21X1
A_1277_ [\u_cpu.state.cnt_r\_1_ \u_cpu.state.cnt_r\_0_] _604_ d_lut_NOR2X1
A_1278_ [\u_cpu.state.cnt_r\_3_ \u_cpu.state.cnt_r\_2_] _603_ d_lut_NOR2X1
A_1279_ [_604_ _603_] _602_ d_lut_NAND2X1
A_1280_ [_602_] _601_ d_lut_INVX2
A_1281_ [\u_cpu.branch_op\ _635_] _600_ d_lut_NOR2X1
A_1282_ [_600_ _601_] _599_ d_lut_NOR2X1
A_1283_ [_630_ _599_] _598_ d_lut_NAND2X1
A_1284_ [_598_ _605_] _597_ d_lut_NAND2X1
A_1285_ [_597__bF$buf4] _596_ d_lut_INVX1
A_1286_ [_640_ _596_] _595_ d_lut_NOR2X1
A_1287_ [rreg1_0_] _594_ d_lut_INVX1
A_1288_ [\u_cpu.decode.opcode\_2_ \u_cpu.decode.opcode\_1_] _593_ d_lut_NOR2X1
A_1289_ [\u_cpu.bufreg2.i_op_b_sel\] _592_ d_lut_INVX1
A_1290_ [\u_cpu.decode.opcode\_0_ _592_] _591_ d_lut_NOR2X1
A_1291_ [_591_ _593_ _594_] _590_ d_lut_AOI21X1
A_1292_ [rf_wreg0_to_if_0_] _589_ d_lut_INVX1
A_1293_ [_593_ _591_] _588_ d_lut_NAND2X1
A_1294_ [_589_ _588_ _621_] _587_ d_lut_OAI21X1
A_1295_ [_636_ _653_ \u_cpu.immdec.gen_immdec_w_eq_1.imm31\] _586_ d_lut_OAI21X1
A_1296_ [_586_ _622_] _585_ d_lut_NAND2X1
A_1297_ [_590_ _587_ _585_] _584_ d_lut_OAI21X1
A_1298_ [_584_] _583_ d_lut_INVX1
A_1299_ [_627_ _625_ _659_] _582_ d_lut_AOI21X1
A_1300_ [_583_ _582_ _595_ _659_] _581_ d_lut_AOI22X1
A_1301_ [\u_cpu.state.cnt_r\_0_] _580_ d_lut_INVX1
A_1302_ [\u_cpu.bufreg2.i_bytecnt\_1_ \u_cpu.bufreg2.i_bytecnt\_0_] _579_ d_lut_NOR2X1
A_1303_ [_579_] _578_ d_lut_INVX1
A_1304_ [\u_cpu.state.o_cnt\_2_ _578_] _577_ d_lut_NOR2X1
A_1305_ [_577_] _576_ d_lut_INVX1
A_1306_ [_580_ _576_] _575_ d_lut_NOR2X1
A_1307_ [_581_ _641_ _575_] _574_ d_lut_AOI21X1
A_1308_ [_641_ _581_ _574_] _573_ d_lut_OAI21X1
A_1309_ [\u_cpu.decode.co_mem_word\ \u_cpu.bufreg.i_right_shift_op\] _572_ d_lut_NOR2X1
A_1310_ [_572_] _571_ d_lut_INVX1
A_1311_ [\u_cpu.bne_or_bge\ _571_] _570_ d_lut_NOR2X1
A_1312_ [_570_] _569_ d_lut_INVX1
A_1313_ [\u_rf_if.stream_active\] _568_ d_lut_INVX8
A_1314_ [\u_rf_if.read_buf0\_0_] _567_ d_lut_INVX1
A_1315_ [_568__bF$buf5 _567_] _566_ d_lut_NOR2X1
A_1316_ [\u_cpu.alu.add_cy_r\_0_ _566_] _565_ d_lut_NAND2X1
A_1317_ [\u_cpu.alu.add_cy_r\] _564_ d_lut_INVX1
A_1318_ [_568__bF$buf4 _567_ _564_] _563_ d_lut_OAI21X1
A_1319_ [_563_ _565_] _562_ d_lut_NAND2X1
A_1320_ [mem_ibus_ack_bF$buf6] _561_ d_lut_INVX8
A_1321_ [current_stream_rs2_hint _561__bF$buf4] _560_ d_lut_NAND2X1
A_1322_ [\u_mem_serial.shift_reg\_4_] _559_ d_lut_INVX1
A_1323_ [\u_mem_serial.shift_reg\_6_] _558_ d_lut_INVX1
A_1324_ [_559_ _558_ mem_ibus_ack_bF$buf5] _557_ d_lut_OAI21X1
A_1325_ [\u_mem_serial.shift_reg\_5_] _556_ d_lut_INVX1
A_1326_ [\u_mem_serial.shift_reg\_2_] _555_ d_lut_INVX1
A_1327_ [\u_mem_serial.shift_reg\_1_ \u_mem_serial.shift_reg\_0_ _555_] _554_ d_lut_NAND3X1
A_1328_ [_556_ \u_mem_serial.shift_reg\_3_ _554_] _553_ d_lut_NOR3X1
A_1329_ [_553_] _552_ d_lut_INVX1
A_1330_ [_557_ _552_ _560_] \u_rf_if.i_stream_rs2_en\ d_lut_OAI21X1
A_1331_ [_592_ _568__bF$buf3] _551_ d_lut_NOR2X1
A_1332_ [\u_rf_if.rs2_stream_buf\_0_ _551_ \u_rf_if.i_stream_rs2_en\] _550_ d_lut_NAND3X1
A_1333_ [\u_cpu.bufreg2.i_op_b_sel\ _584_ _550_] _549_ d_lut_OAI21X1
A_1334_ [_549_] _548_ d_lut_INVX1
A_1335_ [\u_cpu.bufreg.i_sh_signed\] _547_ d_lut_INVX1
A_1336_ [\u_cpu.bne_or_bge\] _546_ d_lut_INVX1
A_1337_ [_634_ _546_] _545_ d_lut_NAND2X1
A_1338_ [\u_cpu.branch_op\ _545_] _544_ d_lut_NOR2X1
A_1339_ [_592_ _547_ _544_] _543_ d_lut_OAI21X1
A_1340_ [_543_] _542_ d_lut_INVX1
A_1341_ [_542_ _548_] _541_ d_lut_NAND2X1
A_1342_ [_543_ _549_] _540_ d_lut_NAND2X1
A_1343_ [_540_ _541_] _539_ d_lut_NAND2X1
A_1344_ [_539_ _562_] _538_ d_lut_OR2X2
A_1345_ [_562_ _539_] _537_ d_lut_NAND2X1
A_1346_ [_537_ _538_] _536_ d_lut_NAND2X1
A_1347_ [_549_ _566_] _535_ d_lut_AND2X2
A_1348_ [_566_ _549_] _534_ d_lut_NOR2X1
A_1349_ [_534_ _535_] _533_ d_lut_NOR2X1
A_1350_ [_546_ \u_cpu.bufreg.i_right_shift_op\ _533_] _532_ d_lut_NAND3X1
A_1351_ [\u_cpu.alu.cmp_r\] _531_ d_lut_INVX1
A_1352_ [\u_cpu.decode.co_mem_word\ _636_] _530_ d_lut_NAND2X1
A_1353_ [_531_ _530_] _529_ d_lut_NOR2X1
A_1354_ [_575_ _529_ _535_ _633_] _528_ d_lut_AOI22X1
A_1355_ [_528_ _532_] _527_ d_lut_NAND2X1
A_1356_ [_527_ _595_] _526_ d_lut_NOR2X1
A_1357_ [_569_ _536_ _526_] _525_ d_lut_OAI21X1
A_1358_ [_632_ \u_cpu.decode.opcode\_2_] _524_ d_lut_AND2X2
A_1359_ [\u_cpu.state.cnt_r\_2_] _523_ d_lut_INVX1
A_1360_ [_523_ _576_] _522_ d_lut_NOR2X1
A_1361_ [\u_cpu.ctrl.pc\] _521_ d_lut_INVX1
A_1362_ [\u_cpu.ctrl.pc_plus_4_cy_r_w\_0_] _520_ d_lut_INVX1
A_1363_ [_521_ _520_] _519_ d_lut_NOR2X1
A_1364_ [\u_cpu.ctrl.pc\_0_ \u_cpu.ctrl.pc_plus_4_cy_r_w\_0_] _518_ d_lut_NOR2X1
A_1365_ [_518_ _519_] _517_ d_lut_NOR2X1
A_1366_ [_517_ _522_] _516_ d_lut_NAND2X1
A_1367_ [_516_] _515_ d_lut_INVX1
A_1368_ [_517_ _522_] _514_ d_lut_NOR2X1
A_1369_ [_514_ _515_] _513_ d_lut_NOR2X1
A_1370_ [_513_] _512_ d_lut_INVX1
A_1371_ [\u_cpu.decode.opcode\_0_ \u_cpu.branch_op\] _511_ d_lut_NAND2X1
A_1372_ [\u_cpu.bufreg2.dlo\_0_] _510_ d_lut_INVX1
A_1373_ [\u_cpu.state.i_ctrl_misalign\ \u_cpu.bufreg2.dlo\_16_ \u_cpu.bufreg.data\_0_] _509_ d_lut_AOI21X1
A_1374_ [\u_cpu.state.i_ctrl_misalign\ _510_ _509_] _508_ d_lut_OAI21X1
A_1375_ [\u_cpu.bufreg2.dlo\_8_] _507_ d_lut_INVX1
A_1376_ [\u_cpu.bufreg.i_shamt\_0_ \u_cpu.state.i_ctrl_misalign\ _640_] _506_ d_lut_AOI21X1
A_1377_ [\u_cpu.state.i_ctrl_misalign\ _507_ _506_] _505_ d_lut_OAI21X1
A_1378_ [\u_cpu.decode.opcode\_2_ _634_] _504_ d_lut_NOR2X1
A_1379_ [_504_] _503_ d_lut_INVX1
A_1380_ [\u_cpu.decode.opcode\_0_ _503_] _502_ d_lut_NOR2X1
A_1381_ [_508_ _505_ _502_] _501_ d_lut_NAND3X1
A_1382_ [_511_ _512_ _501_] _500_ d_lut_OAI21X1
A_1383_ [_525_ _524_ _500_] _499_ d_lut_AOI21X1
A_1384_ [_659_ _573_ _499_] \u_cpu.o_wdata0\_0_ d_lut_OAI21X1
A_1385_ [\u_mem_serial.shift_reg\_13_ mem_ibus_ack_bF$buf4] _498_ d_lut_NAND2X1
A_1386_ [mem_ibus_ack_bF$buf3 _634_ _498_] _947_ d_lut_OAI21X1
A_1387_ [mem_ibus_ack_bF$buf2 \u_mem_serial.shift_reg\_12_] _497_ d_lut_NAND2X1
A_1388_ [mem_ibus_ack_bF$buf1 _546_ _497_] _946_ d_lut_OAI21X1
A_1389_ [mem_ibus_ack_bF$buf0 \u_mem_serial.shift_reg\_5_] _496_ d_lut_NAND2X1
A_1390_ [mem_ibus_ack_bF$buf6 _592_ _496_] _945_ d_lut_OAI21X1
A_1391_ [\u_cpu.decode.opcode\_2_ mem_ibus_ack_bF$buf5] _495_ d_lut_NOR2X1
A_1392_ [mem_ibus_ack_bF$buf4 _559_ _495_] _944_ d_lut_AOI21X1
A_1393_ [\u_mem_serial.shift_reg\_3_] _494_ d_lut_INVX1
A_1394_ [_494_ _648_ mem_ibus_ack_bF$buf3] _943_ d_lut_MUX2X1
A_1395_ [mem_ibus_ack_bF$buf2 \u_mem_serial.shift_reg\_2_] _493_ d_lut_NAND2X1
A_1396_ [mem_ibus_ack_bF$buf1 _661_ _493_] _942_ d_lut_OAI21X1
A_1397_ [i_rst_n] _492_ d_lut_INVX4
A_1398_ [_629_ _621_] _491_ d_lut_NOR2X1
A_1399_ [_491_] _490_ d_lut_INVX1
A_1400_ [\u_cpu.state.init_done\ \u_cpu.bufreg.i_right_shift_op\ _601_] _489_ d_lut_NAND3X1
A_1401_ [_490_ _489_ _637_] _488_ d_lut_AOI21X1
A_1402_ [_636_ _607_ _488_] _487_ d_lut_OAI21X1
A_1403_ [\u_cpu.decode.opcode\_0_ _656_] _486_ d_lut_NOR2X1
A_1404_ [_486_] _485_ d_lut_INVX1
A_1405_ [_530_ _485_ _655_] _484_ d_lut_OAI21X1
A_1406_ [_491_ _484_ mem_dbus_ack_bF$buf6] _483_ d_lut_AOI21X1
A_1407_ [_483_ _487_] _482_ d_lut_NAND2X1
A_1408_ [_482_] _481_ d_lut_INVX1
A_1409_ [_621_ \u_cpu.state.cnt_r\_3_ \u_rf_if.ready_pulse\] _480_ d_lut_AOI21X1
A_1410_ [_481_ _480_ _492__bF$buf3] _941_ d_lut_AOI21X1
A_1411_ [_580_ _492__bF$buf2] _940_ d_lut_NOR2X1
A_1412_ [_558_ _655_ mem_ibus_ack_bF$buf0] _939_ d_lut_MUX2X1
A_1413_ [mem_ibus_ack_bF$buf6 \u_mem_serial.shift_reg\_14_] _479_ d_lut_NAND2X1
A_1414_ [mem_ibus_ack_bF$buf5 _636_ _479_] _938_ d_lut_OAI21X1
A_1415_ [\u_mem_serial.shift_reg\_20_] _478_ d_lut_INVX1
A_1416_ [_561__bF$buf3 _478_] _477_ d_lut_NOR2X1
A_1417_ [_477_] _476_ d_lut_INVX1
A_1418_ [mem_ibus_ack_bF$buf4 _657_ _476_] _937_ d_lut_OAI21X1
A_1419_ [\u_cpu.state.cnt_r\_1_ i_rst_n] _936_ d_lut_AND2X2
A_1420_ [\u_cpu.state.o_cnt\_2_] _475_ d_lut_INVX1
A_1421_ [_626_ _475_] _474_ d_lut_NOR2X1
A_1422_ [\u_cpu.bufreg2.i_bytecnt\_0_ _474_] _473_ d_lut_NOR2X1
A_1423_ [_626_ _625_ i_rst_n] _472_ d_lut_OAI21X1
A_1424_ [_472_ _473_] _935_ d_lut_NOR2X1
A_1425_ [mem_ibus_ack_bF$buf3 \u_mem_serial.shift_reg\_30_] _471_ d_lut_NAND2X1
A_1426_ [mem_ibus_ack_bF$buf2 _547_ _471_] _934_ d_lut_OAI21X1
A_1427_ [rreg0_3_] _470_ d_lut_INVX1
A_1428_ [mem_ibus_ack_bF$buf1 _602_] _469_ d_lut_NOR2X1
A_1429_ [_469_] _468_ d_lut_INVX1
A_1430_ [_593_ _486_] _467_ d_lut_NOR2X1
A_1431_ [_636_ _653_ _561__bF$buf2] _466_ d_lut_OAI21X1
A_1432_ [_467_ _466_ _468_] _465_ d_lut_OAI21X1
A_1433_ [rreg0_4_] _464_ d_lut_INVX1
A_1434_ [\u_mem_serial.shift_reg\_18_] _463_ d_lut_INVX1
A_1435_ [_561__bF$buf1 _463_] _462_ d_lut_NOR2X1
A_1436_ [_462_] _461_ d_lut_INVX1
A_1437_ [mem_ibus_ack_bF$buf0 _464_ _461_] _460_ d_lut_OAI21X1
A_1438_ [_460_ _465__bF$buf3] _459_ d_lut_NOR2X1
A_1439_ [_470_ _465__bF$buf2 _459_] _933_ d_lut_AOI21X1
A_1440_ [rreg0_2_] _458_ d_lut_INVX1
A_1441_ [\u_mem_serial.shift_reg\_17_] _457_ d_lut_INVX1
A_1442_ [_561__bF$buf0 _457_] _456_ d_lut_NOR2X1
A_1443_ [_456_] _455_ d_lut_INVX1
A_1444_ [mem_ibus_ack_bF$buf6 _470_ _455_] _454_ d_lut_OAI21X1
A_1445_ [_454_ _465__bF$buf1] _453_ d_lut_NOR2X1
A_1446_ [_458_ _465__bF$buf0 _453_] _932_ d_lut_AOI21X1
A_1447_ [rreg0_1_] _452_ d_lut_INVX1
A_1448_ [\u_mem_serial.shift_reg\_16_] _451_ d_lut_INVX1
A_1449_ [_561__bF$buf4 _451_] _450_ d_lut_NOR2X1
A_1450_ [_450_] _449_ d_lut_INVX1
A_1451_ [mem_ibus_ack_bF$buf5 _458_ _449_] _448_ d_lut_OAI21X1
A_1452_ [_448_ _465__bF$buf3] _447_ d_lut_NOR2X1
A_1453_ [_452_ _465__bF$buf2 _447_] _931_ d_lut_AOI21X1
A_1454_ [\u_cpu.csr_imm\_0_] _446_ d_lut_INVX1
A_1455_ [\u_mem_serial.shift_reg\_15_] _445_ d_lut_INVX1
A_1456_ [_561__bF$buf3 _445_] _444_ d_lut_NOR2X1
A_1457_ [_444_] _443_ d_lut_INVX1
A_1458_ [mem_ibus_ack_bF$buf4 _452_ _443_] _442_ d_lut_OAI21X1
A_1459_ [_442_ _465__bF$buf1] _441_ d_lut_NOR2X1
A_1460_ [_446_ _465__bF$buf0 _441_] _930_ d_lut_AOI21X1
A_1461_ [\u_cpu.immdec.gen_immdec_w_eq_1.imm19_12_20\_3_] _440_ d_lut_INVX1
A_1462_ [mem_ibus_ack_bF$buf3 _446_ _479_] _439_ d_lut_OAI21X1
A_1463_ [_439_ _465__bF$buf3] _438_ d_lut_NOR2X1
A_1464_ [_440_ _465__bF$buf2 _438_] _929_ d_lut_AOI21X1
A_1465_ [\u_cpu.immdec.gen_immdec_w_eq_1.imm19_12_20\_2_] _437_ d_lut_INVX1
A_1466_ [mem_ibus_ack_bF$buf2 _440_ _498_] _436_ d_lut_OAI21X1
A_1467_ [_436_ _465__bF$buf1] _435_ d_lut_NOR2X1
A_1468_ [_437_ _465__bF$buf0 _435_] _928_ d_lut_AOI21X1
A_1469_ [\u_cpu.immdec.gen_immdec_w_eq_1.imm19_12_20\_1_] _434_ d_lut_INVX1
A_1470_ [mem_ibus_ack_bF$buf1 _437_ _497_] _433_ d_lut_OAI21X1
A_1471_ [_433_ _465__bF$buf3] _432_ d_lut_NOR2X1
A_1472_ [_434_ _465__bF$buf2 _432_] _927_ d_lut_AOI21X1
A_1473_ [\u_cpu.immdec.gen_immdec_w_eq_1.imm19_12_20\_0_] _431_ d_lut_INVX1
A_1474_ [mem_ibus_ack_bF$buf0 _434_ _476_] _430_ d_lut_OAI21X1
A_1475_ [_430_ _465__bF$buf1] _429_ d_lut_NOR2X1
A_1476_ [_431_ _465__bF$buf0 _429_] _926_ d_lut_AOI21X1
A_1477_ [\u_cpu.immdec.gen_immdec_w_eq_1.imm30_25\_4_] _428_ d_lut_INVX1
A_1478_ [\u_cpu.decode.opcode\_0_ _649_ _495_] _427_ d_lut_NAND3X1
A_1479_ [mem_ibus_ack_bF$buf6 _602_ _427_] _426_ d_lut_OAI21X1
A_1480_ [\u_mem_serial.shift_reg\_29_ \u_cpu.immdec.gen_immdec_w_eq_1.imm30_25\_5_ mem_ibus_ack_bF$buf5] _425_ d_lut_MUX2X1
A_1481_ [_428_ _425_ _426_] _925_ d_lut_MUX2X1
A_1482_ [\u_cpu.immdec.gen_immdec_w_eq_1.imm30_25\_3_] _424_ d_lut_INVX1
A_1483_ [\u_mem_serial.shift_reg\_28_ \u_cpu.immdec.gen_immdec_w_eq_1.imm30_25\_4_ mem_ibus_ack_bF$buf4] _423_ d_lut_MUX2X1
A_1484_ [_424_ _423_ _426_] _924_ d_lut_MUX2X1
A_1485_ [\u_cpu.immdec.gen_immdec_w_eq_1.imm30_25\_2_] _422_ d_lut_INVX1
A_1486_ [\u_mem_serial.shift_reg\_27_ \u_cpu.immdec.gen_immdec_w_eq_1.imm30_25\_3_ mem_ibus_ack_bF$buf3] _421_ d_lut_MUX2X1
A_1487_ [_422_ _421_ _426_] _923_ d_lut_MUX2X1
A_1488_ [\u_cpu.immdec.gen_immdec_w_eq_1.imm30_25\_1_] _420_ d_lut_INVX1
A_1489_ [\u_mem_serial.shift_reg\_26_ \u_cpu.immdec.gen_immdec_w_eq_1.imm30_25\_2_ mem_ibus_ack_bF$buf2] _419_ d_lut_MUX2X1
A_1490_ [_420_ _419_ _426_] _922_ d_lut_MUX2X1
A_1491_ [\u_cpu.immdec.gen_immdec_w_eq_1.imm30_25\_0_] _418_ d_lut_INVX1
A_1492_ [\u_mem_serial.shift_reg\_25_ \u_cpu.immdec.gen_immdec_w_eq_1.imm30_25\_1_ mem_ibus_ack_bF$buf1] _417_ d_lut_MUX2X1
A_1493_ [_418_ _417_ _426_] _921_ d_lut_MUX2X1
A_1494_ [rreg1_3_] _416_ d_lut_INVX1
A_1495_ [_591_] _415_ d_lut_INVX1
A_1496_ [_656_ _655_ _561__bF$buf2] _414_ d_lut_OAI21X1
A_1497_ [_415_ _414_ _468_] _413_ d_lut_OAI21X1
A_1498_ [rreg1_4_] _412_ d_lut_INVX1
A_1499_ [\u_mem_serial.shift_reg\_23_] _411_ d_lut_INVX1
A_1500_ [_561__bF$buf1 _411_] _410_ d_lut_NOR2X1
A_1501_ [_410_] _409_ d_lut_INVX1
A_1502_ [mem_ibus_ack_bF$buf0 _412_ _409_] _408_ d_lut_OAI21X1
A_1503_ [_408_ _413_] _407_ d_lut_NOR2X1
A_1504_ [_416_ _413_ _407_] _920_ d_lut_AOI21X1
A_1505_ [rreg1_2_] _406_ d_lut_INVX1
A_1506_ [\u_mem_serial.shift_reg\_22_] _405_ d_lut_INVX1
A_1507_ [_561__bF$buf0 _405_] _404_ d_lut_NOR2X1
A_1508_ [_404_] _403_ d_lut_INVX1
A_1509_ [mem_ibus_ack_bF$buf6 _416_ _403_] _402_ d_lut_OAI21X1
A_1510_ [_402_ _413_] _401_ d_lut_NOR2X1
A_1511_ [_406_ _413_ _401_] _919_ d_lut_AOI21X1
A_1512_ [rreg1_1_] _400_ d_lut_INVX1
A_1513_ [\u_mem_serial.shift_reg\_21_] _399_ d_lut_INVX1
A_1514_ [_561__bF$buf4 _399_] _398_ d_lut_NOR2X1
A_1515_ [_398_] _397_ d_lut_INVX1
A_1516_ [mem_ibus_ack_bF$buf5 _406_ _397_] _396_ d_lut_OAI21X1
A_1517_ [_396_ _413_] _395_ d_lut_NOR2X1
A_1518_ [_400_ _413_ _395_] _918_ d_lut_AOI21X1
A_1519_ [mem_ibus_ack_bF$buf4 _400_ _476_] _394_ d_lut_OAI21X1
A_1520_ [_394_ _413_] _393_ d_lut_NOR2X1
A_1521_ [_594_ _413_ _393_] _917_ d_lut_AOI21X1
A_1522_ [rf_wreg0_to_if_3_] _392_ d_lut_INVX1
A_1523_ [_660_ _591_ _656_] _391_ d_lut_OAI21X1
A_1524_ [_601_ _391_] _390_ d_lut_NOR2X1
A_1525_ [mem_ibus_ack_bF$buf3 _390_] _389_ d_lut_NOR2X1
A_1526_ [\u_cpu.immdec.gen_immdec_w_eq_1.imm11_7\_4_] _388_ d_lut_INVX1
A_1527_ [mem_ibus_ack_bF$buf2 _388_] _387_ d_lut_NOR2X1
A_1528_ [mem_ibus_ack_bF$buf1 \u_mem_serial.shift_reg\_10_ _387_] _386_ d_lut_AOI21X1
A_1529_ [_392_ _386_ _389_] _916_ d_lut_MUX2X1
A_1530_ [_390_] _385_ d_lut_INVX1
A_1531_ [mem_ibus_ack_bF$buf0 _385_] _384_ d_lut_NOR2X1
A_1532_ [rf_wreg0_to_if_2_] _383_ d_lut_INVX1
A_1533_ [_561__bF$buf3 _383_] _382_ d_lut_NAND2X1
A_1534_ [_561__bF$buf2 \u_mem_serial.shift_reg\_9_ _382_ _390_] _381_ d_lut_OAI22X1
A_1535_ [_384_ _392_ _381_] _915_ d_lut_AOI21X1
A_1536_ [rf_wreg0_to_if_1_] _380_ d_lut_INVX1
A_1537_ [_561__bF$buf1 \u_mem_serial.shift_reg\_8_ _382_ _385_] _379_ d_lut_OAI22X1
A_1538_ [_389_ _380_ _379_] _914_ d_lut_AOI21X1
A_1539_ [_384_] _378_ d_lut_INVX1
A_1540_ [mem_ibus_ack_bF$buf6 \u_mem_serial.shift_reg\_7_ _389_ rf_wreg0_to_if_0_] _377_ d_lut_AOI22X1
A_1541_ [_380_ _378_ _377_] _913_ d_lut_OAI21X1
A_1542_ [\u_mem_serial.shift_reg\_31_] _376_ d_lut_INVX1
A_1543_ [\u_cpu.immdec.gen_immdec_w_eq_1.imm31\ _561__bF$buf0] _375_ d_lut_NAND2X1
A_1544_ [_561__bF$buf4 _376_ _375_] _912_ d_lut_OAI21X1
A_1545_ [_375_] _374_ d_lut_INVX1
A_1546_ [_636_ _653_ _374_] _373_ d_lut_OAI21X1
A_1547_ [mem_ibus_ack_bF$buf5 \u_cpu.branch_op\ _373_] _372_ d_lut_OAI21X1
A_1548_ [\u_cpu.branch_op\ rreg1_0_ _372_] _371_ d_lut_OAI21X1
A_1549_ [mem_ibus_ack_bF$buf4 \u_mem_serial.shift_reg\_19_ _465__bF$buf3] _370_ d_lut_AOI21X1
A_1550_ [_464_ _465__bF$buf2 _370_ _371_] _911_ d_lut_AOI22X1
A_1551_ [mem_ibus_ack_bF$buf3 \u_mem_serial.shift_reg\_7_ _469_ \u_cpu.immdec.gen_immdec_w_eq_1.imm7\] _369_ d_lut_AOI22X1
A_1552_ [_601_ _373_ _369_] _910_ d_lut_OAI21X1
A_1553_ [\u_cpu.immdec.gen_immdec_w_eq_1.imm30_25\_5_] _368_ d_lut_INVX1
A_1554_ [\u_cpu.immdec.gen_immdec_w_eq_1.imm7\] _367_ d_lut_INVX1
A_1555_ [\u_cpu.branch_op\ _661_] _366_ d_lut_NAND2X1
A_1556_ [_367_ _366_] _365_ d_lut_NOR2X1
A_1557_ [\u_cpu.decode.opcode\_2_ \u_cpu.decode.opcode\_1_ _650_] _364_ d_lut_OAI21X1
A_1558_ [\u_cpu.immdec.gen_immdec_w_eq_1.imm19_12_20\_0_ _364_ _366_] _363_ d_lut_OAI21X1
A_1559_ [_586_ _364_ _363_] _362_ d_lut_AOI21X1
A_1560_ [_365_ _362_ _561__bF$buf3] _361_ d_lut_OAI21X1
A_1561_ [mem_ibus_ack_bF$buf2 \u_mem_serial.shift_reg\_30_ _426_] _360_ d_lut_AOI21X1
A_1562_ [_368_ _426_ _361_ _360_] _909_ d_lut_AOI22X1
A_1563_ [\u_mem_serial.shift_reg\_24_] _359_ d_lut_INVX1
A_1564_ [mem_ibus_ack_bF$buf1 _418_] _358_ d_lut_NOR2X1
A_1565_ [_358_] _357_ d_lut_INVX1
A_1566_ [_561__bF$buf2 _359_ _357_] _356_ d_lut_OAI21X1
A_1567_ [_356_ _413_] _355_ d_lut_NOR2X1
A_1568_ [_412_ _413_ _355_] _908_ d_lut_AOI21X1
A_1569_ [mem_ibus_ack_bF$buf0 \u_mem_serial.shift_reg\_11_ _385_ _387_] _354_ d_lut_AOI22X1
A_1570_ [_385_ _357_ _354_] _907_ d_lut_OAI21X1
A_1571_ [\u_cpu.bufreg.data\_28_] _353_ d_lut_INVX1
A_1572_ [\u_cpu.bufreg.data\_29_] _352_ d_lut_INVX1
A_1573_ [_352_ _353_ _597__bF$buf3] _906_ d_lut_MUX2X1
A_1574_ [\u_cpu.bufreg.data\_27_] _351_ d_lut_INVX1
A_1575_ [_353_ _351_ _597__bF$buf2] _905_ d_lut_MUX2X1
A_1576_ [\u_cpu.bufreg.data\_26_] _350_ d_lut_INVX1
A_1577_ [_351_ _350_ _597__bF$buf1] _904_ d_lut_MUX2X1
A_1578_ [\u_cpu.bufreg.data\_25_] _349_ d_lut_INVX1
A_1579_ [_350_ _349_ _597__bF$buf0] _903_ d_lut_MUX2X1
A_1580_ [\u_cpu.bufreg.data\_24_] _348_ d_lut_INVX1
A_1581_ [_349_ _348_ _597__bF$buf4] _902_ d_lut_MUX2X1
A_1582_ [\u_cpu.bufreg.data\_23_] _347_ d_lut_INVX1
A_1583_ [_348_ _347_ _597__bF$buf3] _901_ d_lut_MUX2X1
A_1584_ [\u_cpu.bufreg.data\_22_] _346_ d_lut_INVX1
A_1585_ [_347_ _346_ _597__bF$buf2] _900_ d_lut_MUX2X1
A_1586_ [\u_cpu.bufreg.data\_21_] _345_ d_lut_INVX1
A_1587_ [_346_ _345_ _597__bF$buf1] _899_ d_lut_MUX2X1
A_1588_ [\u_cpu.bufreg.data\_20_] _344_ d_lut_INVX1
A_1589_ [_345_ _344_ _597__bF$buf0] _898_ d_lut_MUX2X1
A_1590_ [\u_cpu.bufreg.data\_19_] _343_ d_lut_INVX1
A_1591_ [_344_ _343_ _597__bF$buf4] _897_ d_lut_MUX2X1
A_1592_ [\u_cpu.bufreg.data\_18_] _342_ d_lut_INVX1
A_1593_ [_343_ _342_ _597__bF$buf3] _896_ d_lut_MUX2X1
A_1594_ [\u_cpu.bufreg.data\_17_] _341_ d_lut_INVX1
A_1595_ [_342_ _341_ _597__bF$buf2] _895_ d_lut_MUX2X1
A_1596_ [\u_cpu.bufreg.data\_16_] _340_ d_lut_INVX1
A_1597_ [_341_ _340_ _597__bF$buf1] _894_ d_lut_MUX2X1
A_1598_ [\u_cpu.bufreg.data\_15_] _339_ d_lut_INVX1
A_1599_ [_340_ _339_ _597__bF$buf0] _893_ d_lut_MUX2X1
A_1600_ [\u_cpu.bufreg.data\_14_] _338_ d_lut_INVX1
A_1601_ [_339_ _338_ _597__bF$buf4] _892_ d_lut_MUX2X1
A_1602_ [\u_cpu.bufreg.data\_13_] _337_ d_lut_INVX1
A_1603_ [_338_ _337_ _597__bF$buf3] _891_ d_lut_MUX2X1
A_1604_ [\u_cpu.bufreg.data\_12_] _336_ d_lut_INVX1
A_1605_ [_337_ _336_ _597__bF$buf2] _890_ d_lut_MUX2X1
A_1606_ [\u_cpu.bufreg.data\_11_] _335_ d_lut_INVX1
A_1607_ [_336_ _335_ _597__bF$buf1] _889_ d_lut_MUX2X1
A_1608_ [\u_cpu.bufreg.data\_10_] _334_ d_lut_INVX1
A_1609_ [_335_ _334_ _597__bF$buf0] _888_ d_lut_MUX2X1
A_1610_ [\u_cpu.bufreg.data\_9_] _333_ d_lut_INVX1
A_1611_ [_334_ _333_ _597__bF$buf4] _887_ d_lut_MUX2X1
A_1612_ [\u_cpu.bufreg.data\_8_] _332_ d_lut_INVX1
A_1613_ [_333_ _332_ _597__bF$buf3] _886_ d_lut_MUX2X1
A_1614_ [\u_cpu.bufreg.data\_7_] _331_ d_lut_INVX1
A_1615_ [_332_ _331_ _597__bF$buf2] _885_ d_lut_MUX2X1
A_1616_ [\u_cpu.bufreg.data\_6_] _330_ d_lut_INVX1
A_1617_ [_331_ _330_ _597__bF$buf1] _884_ d_lut_MUX2X1
A_1618_ [\u_cpu.bufreg.data\_5_] _329_ d_lut_INVX1
A_1619_ [_330_ _329_ _597__bF$buf0] _883_ d_lut_MUX2X1
A_1620_ [\u_cpu.bufreg.data\_4_] _328_ d_lut_INVX1
A_1621_ [_329_ _328_ _597__bF$buf4] _882_ d_lut_MUX2X1
A_1622_ [\u_cpu.bufreg.data\_3_] _662_ d_lut_INVX1
A_1623_ [_328_ _662_ _597__bF$buf3] _881_ d_lut_MUX2X1
A_1624_ [\u_cpu.bufreg.data\_2_ _597__bF$buf2] _663_ d_lut_NOR2X1
A_1625_ [_662_ _597__bF$buf1 _663_] _880_ d_lut_AOI21X1
A_1626_ [\u_cpu.state.i_ctrl_misalign\] _664_ d_lut_INVX1
A_1627_ [\u_cpu.state.cnt_r\_1_ \u_cpu.state.cnt_r\_0_ _577_] _665_ d_lut_OAI21X1
A_1628_ [_629_ _597__bF$buf0] _666_ d_lut_NAND2X1
A_1629_ [_629_ _665_ _666_] _667_ d_lut_OAI21X1
A_1630_ [_664_ _640_ _667_] _879_ d_lut_MUX2X1
A_1631_ [\u_cpu.bufreg.data\_30_] _668_ d_lut_INVX1
A_1632_ [_668_ _352_ _597__bF$buf4] _878_ d_lut_MUX2X1
A_1633_ [\u_cpu.bufreg.data\_31_] _669_ d_lut_INVX1
A_1634_ [_669_ _668_ _597__bF$buf3] _877_ d_lut_MUX2X1
A_1635_ [_575_] _670_ d_lut_INVX1
A_1636_ [_651_ _647_ \u_cpu.branch_op\] _723_ d_lut_OAI21X1
A_1637_ [_723_ _670_ _656_] _724_ d_lut_OAI21X1
A_1638_ [_584_ _724_] _805_ d_lut_NOR2X1
A_1639_ [_805_] _948_ d_lut_INVX1
A_1640_ [\u_cpu.decode.opcode\_0_ _655_ _566_] _949_ d_lut_OAI21X1
A_1641_ [\u_cpu.decode.opcode\_1_ \u_cpu.branch_op\ _949_] _950_ d_lut_AOI21X1
A_1642_ [\u_cpu.bufreg.c_r\_0_ _950_] _951_ d_lut_NAND2X1
A_1643_ [_950_ \u_cpu.bufreg.c_r\_0_] _952_ d_lut_OR2X2
A_1644_ [_951_ _952_] _953_ d_lut_NAND2X1
A_1645_ [_953_ _948_ _628_] _954_ d_lut_OAI21X1
A_1646_ [_948_ _953_ _954_] _955_ d_lut_AOI21X1
A_1647_ [\u_cpu.bufreg.data\_2_ _629_ _955_] _956_ d_lut_AOI21X1
A_1648_ [_956_ _664_ _667_] _876_ d_lut_MUX2X1
A_1649_ [_953_ _948_ _951_] _957_ d_lut_OAI21X1
A_1650_ [_597__bF$buf2 _957_] _875_ d_lut_AND2X2
A_1651_ [_955_] _958_ d_lut_INVX1
A_1652_ [\u_cpu.bufreg.i_sh_signed\ \u_cpu.bufreg.data\_31_] _959_ d_lut_NAND2X1
A_1653_ [_628_ _959_ _958_] _960_ d_lut_OAI21X1
A_1654_ [_596_ _960_] _961_ d_lut_NOR2X1
A_1655_ [_669_ _596_ _961_] _874_ d_lut_AOI21X1
A_1656_ [\u_cpu.bufreg2.i_bytecnt\_0_ \u_cpu.bufreg.data\_0_] _962_ d_lut_NAND2X1
A_1657_ [_627_ _664_ _962_] _963_ d_lut_AOI21X1
A_1658_ [_627_ _664_ _637_] _964_ d_lut_OAI21X1
A_1659_ [_578_ _637_] _965_ d_lut_NOR2X1
A_1660_ [_965_ _628_] _966_ d_lut_NAND2X1
A_1661_ [_963_ _964_ _966_] _967_ d_lut_OAI21X1
A_1662_ [_967_ _602_ mem_dbus_ack_bF$buf5] _968_ d_lut_AOI21X1
A_1663_ [_637_ _619_ _968_] _969_ d_lut_OAI21X1
A_1664_ [\u_mem_serial.shift_reg\_30_ \u_cpu.bufreg2.cnt_next\_6_ mem_dbus_ack_bF$buf4] _970_ d_lut_MUX2X1
A_1665_ [_970_ _639_ _969_] _873_ d_lut_MUX2X1
A_1666_ [_969_] _971_ d_lut_INVX2
A_1667_ [mem_dbus_ack_bF$buf3] _972_ d_lut_INVX2
A_1668_ [_474_ _965_ _619_] _973_ d_lut_NAND3X1
A_1669_ [_972_ _973_ _607_] _974_ d_lut_NAND3X1
A_1670_ [mem_dbus_ack_bF$buf2 \u_mem_serial.shift_reg\_29_ _971_] _975_ d_lut_AOI21X1
A_1671_ [_617_ _971_ _975_ _974_] _872_ d_lut_AOI22X1
A_1672_ [\u_cpu.bufreg2.dhi\_4_ _971_] _976_ d_lut_NAND2X1
A_1673_ [_612_ \u_cpu.bufreg2.dhi\_4_] _977_ d_lut_AND2X2
A_1674_ [_611_ _977_ _618_] _978_ d_lut_OAI21X1
A_1675_ [_617_ _618_ _978_] _979_ d_lut_OAI21X1
A_1676_ [_979_ \u_mem_serial.shift_reg\_28_ _972_] _980_ d_lut_MUX2X1
A_1677_ [_971_ _980_ _976_] _871_ d_lut_OAI21X1
A_1678_ [\u_cpu.bufreg2.dhi\_3_] _981_ d_lut_INVX1
A_1679_ [_618_] _982_ d_lut_INVX1
A_1680_ [_614_] _983_ d_lut_INVX1
A_1681_ [_981_ _983_] _984_ d_lut_NOR2X1
A_1682_ [_613_ _984_ _618_] _985_ d_lut_OAI21X1
A_1683_ [_972_ _985_] _986_ d_lut_NAND2X1