* XSpice netlist created from SPICE and liberty sources by spi2xspice.py
*SPICE netlist created from verilog structural netlist module my_mcu_top by vlog2Spice (qflow)
** Start of included library /usr/local/share/qflow/tech/etri050/etri050_stdcells.sp
* NGSPICE file created from khu_etri050_stdcells.ext - technology: scmos
** End of included library /usr/local/share/qflow/tech/etri050/etri050_stdcells.sp
.subckt my_mcu_top a_vdd a_gnd a_i_clk_fast a_i_rst_n a_o_rf_sync a_o_rf_sck a_o_rf_mosi a_i_rf_miso a_o_mem_sync a_o_mem_sck a_o_mem_mosi a_i_mem_miso a_o_uart_tx a_i_uart_rx a_i_gpio_0_ a_i_gpio_1_ a_i_gpio_2_ a_i_gpio_3_ a_i_gpio_4_ a_i_gpio_5_ a_i_gpio_6_ a_i_gpio_7_ a_o_gpio_0_ a_o_gpio_1_ a_o_gpio_2_ a_o_gpio_3_ a_o_gpio_4_ a_o_gpio_5_ a_o_gpio_6_ a_o_gpio_7_ a_o_gpio_oe_0_ a_o_gpio_oe_1_ a_o_gpio_oe_2_ a_o_gpio_oe_3_ a_o_gpio_oe_4_ a_o_gpio_oe_5_ a_o_gpio_oe_6_ a_o_gpio_oe_7_
ACLKBUF1_insert250 [clk_sys] clk_sys_hier0_bF$buf0 d_lut_CLKBUF1
ACLKBUF1_insert249 [clk_sys] clk_sys_hier0_bF$buf1 d_lut_CLKBUF1
ACLKBUF1_insert248 [clk_sys] clk_sys_hier0_bF$buf2 d_lut_CLKBUF1
ACLKBUF1_insert247 [clk_sys] clk_sys_hier0_bF$buf3 d_lut_CLKBUF1
ACLKBUF1_insert246 [clk_sys] clk_sys_hier0_bF$buf4 d_lut_CLKBUF1
ACLKBUF1_insert245 [clk_sys] clk_sys_hier0_bF$buf5 d_lut_CLKBUF1
ABUFX2_insert244 [mem_ibus_ack] mem_ibus_ack_bF$buf0 d_lut_BUFX2
ABUFX2_insert243 [mem_ibus_ack] mem_ibus_ack_bF$buf1 d_lut_BUFX2
ABUFX2_insert242 [mem_ibus_ack] mem_ibus_ack_bF$buf2 d_lut_BUFX2
ABUFX2_insert241 [mem_ibus_ack] mem_ibus_ack_bF$buf3 d_lut_BUFX2
ABUFX2_insert240 [mem_ibus_ack] mem_ibus_ack_bF$buf4 d_lut_BUFX2
ABUFX2_insert239 [_1316_] _1316__bF$buf0 d_lut_BUFX2
ABUFX2_insert238 [_1316_] _1316__bF$buf1 d_lut_BUFX2
ABUFX2_insert237 [_1316_] _1316__bF$buf2 d_lut_BUFX2
ABUFX2_insert236 [_1316_] _1316__bF$buf3 d_lut_BUFX2
ABUFX2_insert235 [_1316_] _1316__bF$buf4 d_lut_BUFX2
ABUFX2_insert234 [_1877_] _1877__bF$buf0 d_lut_BUFX2
ABUFX2_insert233 [_1877_] _1877__bF$buf1 d_lut_BUFX2
ABUFX2_insert232 [_1877_] _1877__bF$buf2 d_lut_BUFX2
ABUFX2_insert231 [_1877_] _1877__bF$buf3 d_lut_BUFX2
ABUFX2_insert230 [_1877_] _1877__bF$buf4 d_lut_BUFX2
ABUFX2_insert229 [_1877_] _1877__bF$buf5 d_lut_BUFX2
ABUFX2_insert228 [_1172_] _1172__bF$buf0 d_lut_BUFX2
ABUFX2_insert227 [_1172_] _1172__bF$buf1 d_lut_BUFX2
ABUFX2_insert226 [_1172_] _1172__bF$buf2 d_lut_BUFX2
ABUFX2_insert225 [_1172_] _1172__bF$buf3 d_lut_BUFX2
ABUFX2_insert224 [_2154_] _2154__bF$buf0 d_lut_BUFX2
ABUFX2_insert223 [_2154_] _2154__bF$buf1 d_lut_BUFX2
ABUFX2_insert222 [_2154_] _2154__bF$buf2 d_lut_BUFX2
ABUFX2_insert221 [_2154_] _2154__bF$buf3 d_lut_BUFX2
ABUFX2_insert220 [_2154_] _2154__bF$buf4 d_lut_BUFX2
ABUFX2_insert219 [_1983_] _1983__bF$buf0 d_lut_BUFX2
ABUFX2_insert218 [_1983_] _1983__bF$buf1 d_lut_BUFX2
ABUFX2_insert217 [_1983_] _1983__bF$buf2 d_lut_BUFX2
ABUFX2_insert216 [_1983_] _1983__bF$buf3 d_lut_BUFX2
ABUFX2_insert215 [_1983_] _1983__bF$buf4 d_lut_BUFX2
ABUFX2_insert214 [_665_] _665__bF$buf0 d_lut_BUFX2
ABUFX2_insert213 [_665_] _665__bF$buf1 d_lut_BUFX2
ABUFX2_insert212 [_665_] _665__bF$buf2 d_lut_BUFX2
ABUFX2_insert211 [_665_] _665__bF$buf3 d_lut_BUFX2
ABUFX2_insert210 [\u_rf_if.stream_cnt\_1_] \u_rf_if.stream_cnt_1_bF$buf0\ d_lut_BUFX2
ABUFX2_insert209 [\u_rf_if.stream_cnt\_1_] \u_rf_if.stream_cnt_1_bF$buf1\ d_lut_BUFX2
ABUFX2_insert208 [\u_rf_if.stream_cnt\_1_] \u_rf_if.stream_cnt_1_bF$buf2\ d_lut_BUFX2
ABUFX2_insert207 [\u_rf_if.stream_cnt\_1_] \u_rf_if.stream_cnt_1_bF$buf3\ d_lut_BUFX2
ABUFX2_insert206 [_1895_] _1895__bF$buf0 d_lut_BUFX2
ABUFX2_insert205 [_1895_] _1895__bF$buf1 d_lut_BUFX2
ABUFX2_insert204 [_1895_] _1895__bF$buf2 d_lut_BUFX2
ABUFX2_insert203 [_1895_] _1895__bF$buf3 d_lut_BUFX2
ABUFX2_insert202 [\u_cpu.bufreg.i_en\] \u_cpu.bufreg.i_en_bF$buf0\ d_lut_BUFX2
ABUFX2_insert201 [\u_cpu.bufreg.i_en\] \u_cpu.bufreg.i_en_bF$buf1\ d_lut_BUFX2
ABUFX2_insert200 [\u_cpu.bufreg.i_en\] \u_cpu.bufreg.i_en_bF$buf2\ d_lut_BUFX2
ABUFX2_insert199 [\u_cpu.bufreg.i_en\] \u_cpu.bufreg.i_en_bF$buf3\ d_lut_BUFX2
ABUFX2_insert198 [\u_cpu.bufreg.i_en\] \u_cpu.bufreg.i_en_bF$buf4\ d_lut_BUFX2
ABUFX2_insert197 [rf_rreq] rf_rreq_bF$buf0 d_lut_BUFX2
ABUFX2_insert196 [rf_rreq] rf_rreq_bF$buf1 d_lut_BUFX2
ABUFX2_insert195 [rf_rreq] rf_rreq_bF$buf2 d_lut_BUFX2
ABUFX2_insert194 [rf_rreq] rf_rreq_bF$buf3 d_lut_BUFX2
ABUFX2_insert193 [rf_rreq] rf_rreq_bF$buf4 d_lut_BUFX2
ABUFX2_insert192 [rf_rreq] rf_rreq_bF$buf5 d_lut_BUFX2
ABUFX2_insert191 [rf_rreq] rf_rreq_bF$buf6 d_lut_BUFX2
ABUFX2_insert190 [rf_rreq] rf_rreq_bF$buf7 d_lut_BUFX2
ABUFX2_insert189 [\u_rf_if.issue_sel\] \u_rf_if.issue_sel_bF$buf0\ d_lut_BUFX2
ABUFX2_insert188 [\u_rf_if.issue_sel\] \u_rf_if.issue_sel_bF$buf1\ d_lut_BUFX2
ABUFX2_insert187 [\u_rf_if.issue_sel\] \u_rf_if.issue_sel_bF$buf2\ d_lut_BUFX2
ABUFX2_insert186 [\u_rf_if.issue_sel\] \u_rf_if.issue_sel_bF$buf3\ d_lut_BUFX2
ABUFX2_insert185 [_1164_] _1164__bF$buf0 d_lut_BUFX2
ABUFX2_insert184 [_1164_] _1164__bF$buf1 d_lut_BUFX2
ABUFX2_insert183 [_1164_] _1164__bF$buf2 d_lut_BUFX2
ABUFX2_insert182 [_1164_] _1164__bF$buf3 d_lut_BUFX2
ABUFX2_insert181 [_1164_] _1164__bF$buf4 d_lut_BUFX2
ABUFX2_insert180 [_32_] _32__bF$buf0 d_lut_BUFX2
ABUFX2_insert179 [_32_] _32__bF$buf1 d_lut_BUFX2
ABUFX2_insert178 [_32_] _32__bF$buf2 d_lut_BUFX2
ABUFX2_insert177 [_32_] _32__bF$buf3 d_lut_BUFX2
ABUFX2_insert176 [_32_] _32__bF$buf4 d_lut_BUFX2
ABUFX2_insert175 [_2152_] _2152__bF$buf0 d_lut_BUFX2
ABUFX2_insert174 [_2152_] _2152__bF$buf1 d_lut_BUFX2
ABUFX2_insert173 [_2152_] _2152__bF$buf2 d_lut_BUFX2
ABUFX2_insert172 [_2152_] _2152__bF$buf3 d_lut_BUFX2
ABUFX2_insert171 [_892_] _892__bF$buf0 d_lut_BUFX2
ABUFX2_insert170 [_892_] _892__bF$buf1 d_lut_BUFX2
ABUFX2_insert169 [_892_] _892__bF$buf2 d_lut_BUFX2
ABUFX2_insert168 [_892_] _892__bF$buf3 d_lut_BUFX2
ABUFX2_insert167 [_892_] _892__bF$buf4 d_lut_BUFX2
ABUFX2_insert166 [mem_dbus_ack] mem_dbus_ack_bF$buf0 d_lut_BUFX2
ABUFX2_insert165 [mem_dbus_ack] mem_dbus_ack_bF$buf1 d_lut_BUFX2
ABUFX2_insert164 [mem_dbus_ack] mem_dbus_ack_bF$buf2 d_lut_BUFX2
ABUFX2_insert163 [mem_dbus_ack] mem_dbus_ack_bF$buf3 d_lut_BUFX2
ABUFX2_insert162 [mem_dbus_ack] mem_dbus_ack_bF$buf4 d_lut_BUFX2
ABUFX2_insert161 [mem_dbus_ack] mem_dbus_ack_bF$buf5 d_lut_BUFX2
ABUFX2_insert160 [mem_dbus_ack] mem_dbus_ack_bF$buf6 d_lut_BUFX2
ACLKBUF1_insert159 [i_clk_fast] i_clk_fast_bF$buf0 d_lut_CLKBUF1
ACLKBUF1_insert158 [i_clk_fast] i_clk_fast_bF$buf1 d_lut_CLKBUF1
ACLKBUF1_insert157 [i_clk_fast] i_clk_fast_bF$buf2 d_lut_CLKBUF1
ACLKBUF1_insert156 [i_clk_fast] i_clk_fast_bF$buf3 d_lut_CLKBUF1
ACLKBUF1_insert155 [i_clk_fast] i_clk_fast_bF$buf4 d_lut_CLKBUF1
ACLKBUF1_insert154 [i_clk_fast] i_clk_fast_bF$buf5 d_lut_CLKBUF1
ACLKBUF1_insert153 [i_clk_fast] i_clk_fast_bF$buf6 d_lut_CLKBUF1
ACLKBUF1_insert152 [i_clk_fast] i_clk_fast_bF$buf7 d_lut_CLKBUF1
ABUFX2_insert151 [_1984_] _1984__bF$buf0 d_lut_BUFX2
ABUFX2_insert150 [_1984_] _1984__bF$buf1 d_lut_BUFX2
ABUFX2_insert149 [_1984_] _1984__bF$buf2 d_lut_BUFX2
ABUFX2_insert148 [_1984_] _1984__bF$buf3 d_lut_BUFX2
ABUFX2_insert147 [_1984_] _1984__bF$buf4 d_lut_BUFX2
ABUFX2_insert146 [_1717_] _1717__bF$buf0 d_lut_BUFX2
ABUFX2_insert145 [_1717_] _1717__bF$buf1 d_lut_BUFX2
ABUFX2_insert144 [_1717_] _1717__bF$buf2 d_lut_BUFX2
ABUFX2_insert143 [_1717_] _1717__bF$buf3 d_lut_BUFX2
ABUFX2_insert142 [_1717_] _1717__bF$buf4 d_lut_BUFX2
ABUFX2_insert141 [ibus_pending_ack] ibus_pending_ack_bF$buf0 d_lut_BUFX2
ABUFX2_insert140 [ibus_pending_ack] ibus_pending_ack_bF$buf1 d_lut_BUFX2
ABUFX2_insert139 [ibus_pending_ack] ibus_pending_ack_bF$buf2 d_lut_BUFX2
ABUFX2_insert138 [ibus_pending_ack] ibus_pending_ack_bF$buf3 d_lut_BUFX2
ABUFX2_insert137 [rst] rst_bF$buf0 d_lut_BUFX2
ABUFX2_insert136 [rst] rst_bF$buf1 d_lut_BUFX2
ABUFX2_insert135 [rst] rst_bF$buf2 d_lut_BUFX2
ABUFX2_insert134 [rst] rst_bF$buf3 d_lut_BUFX2
ABUFX2_insert133 [rst] rst_bF$buf4 d_lut_BUFX2
ABUFX2_insert132 [rst] rst_bF$buf5 d_lut_BUFX2
ABUFX2_insert131 [rst] rst_bF$buf6 d_lut_BUFX2
ABUFX2_insert130 [rst] rst_bF$buf7 d_lut_BUFX2
ABUFX2_insert129 [rst] rst_bF$buf8 d_lut_BUFX2
ABUFX2_insert128 [rst] rst_bF$buf9 d_lut_BUFX2
ABUFX2_insert127 [rst] rst_bF$buf10 d_lut_BUFX2
ABUFX2_insert126 [_1303_] _1303__bF$buf0 d_lut_BUFX2
ABUFX2_insert125 [_1303_] _1303__bF$buf1 d_lut_BUFX2
ABUFX2_insert124 [_1303_] _1303__bF$buf2 d_lut_BUFX2
ABUFX2_insert123 [_1303_] _1303__bF$buf3 d_lut_BUFX2
ABUFX2_insert122 [_484_] _484__bF$buf0 d_lut_BUFX2
ABUFX2_insert121 [_484_] _484__bF$buf1 d_lut_BUFX2
ABUFX2_insert120 [_484_] _484__bF$buf2 d_lut_BUFX2
ABUFX2_insert119 [_484_] _484__bF$buf3 d_lut_BUFX2
ABUFX2_insert118 [_446_] _446__bF$buf0 d_lut_BUFX2
ABUFX2_insert117 [_446_] _446__bF$buf1 d_lut_BUFX2
ABUFX2_insert116 [_446_] _446__bF$buf2 d_lut_BUFX2
ABUFX2_insert115 [_446_] _446__bF$buf3 d_lut_BUFX2
ABUFX2_insert114 [i_rst_n] i_rst_n_bF$buf0 d_lut_BUFX2
ABUFX2_insert113 [i_rst_n] i_rst_n_bF$buf1 d_lut_BUFX2
ABUFX2_insert112 [i_rst_n] i_rst_n_bF$buf2 d_lut_BUFX2
ABUFX2_insert111 [i_rst_n] i_rst_n_bF$buf3 d_lut_BUFX2
ABUFX2_insert110 [i_rst_n] i_rst_n_bF$buf4 d_lut_BUFX2
ABUFX2_insert109 [i_rst_n] i_rst_n_bF$buf5 d_lut_BUFX2
ABUFX2_insert108 [_18_] _18__bF$buf0 d_lut_BUFX2
ABUFX2_insert107 [_18_] _18__bF$buf1 d_lut_BUFX2
ABUFX2_insert106 [_18_] _18__bF$buf2 d_lut_BUFX2
ABUFX2_insert105 [_18_] _18__bF$buf3 d_lut_BUFX2
ABUFX2_insert104 [_18_] _18__bF$buf4 d_lut_BUFX2
ABUFX2_insert103 [\u_mem_serial.bit_count\_0_] \u_mem_serial.bit_count_0_bF$buf0\ d_lut_BUFX2
ABUFX2_insert102 [\u_mem_serial.bit_count\_0_] \u_mem_serial.bit_count_0_bF$buf1\ d_lut_BUFX2
ABUFX2_insert101 [\u_mem_serial.bit_count\_0_] \u_mem_serial.bit_count_0_bF$buf2\ d_lut_BUFX2
ABUFX2_insert100 [\u_mem_serial.bit_count\_0_] \u_mem_serial.bit_count_0_bF$buf3\ d_lut_BUFX2
ABUFX2_insert99 [_1315_] _1315__bF$buf0 d_lut_BUFX2
ABUFX2_insert98 [_1315_] _1315__bF$buf1 d_lut_BUFX2
ABUFX2_insert97 [_1315_] _1315__bF$buf2 d_lut_BUFX2
ABUFX2_insert96 [_1315_] _1315__bF$buf3 d_lut_BUFX2
ABUFX2_insert95 [_1297_] _1297__bF$buf0 d_lut_BUFX2
ABUFX2_insert94 [_1297_] _1297__bF$buf1 d_lut_BUFX2
ABUFX2_insert93 [_1297_] _1297__bF$buf2 d_lut_BUFX2
ABUFX2_insert92 [_1297_] _1297__bF$buf3 d_lut_BUFX2
ABUFX2_insert91 [_1297_] _1297__bF$buf4 d_lut_BUFX2
ABUFX2_insert90 [ren] ren_bF$buf0 d_lut_BUFX2
ABUFX2_insert89 [ren] ren_bF$buf1 d_lut_BUFX2
ABUFX2_insert88 [ren] ren_bF$buf2 d_lut_BUFX2
ABUFX2_insert87 [ren] ren_bF$buf3 d_lut_BUFX2
ABUFX2_insert86 [ren] ren_bF$buf4 d_lut_BUFX2
ACLKBUF1_insert85 [clk_sys_hier0_bF$buf5] clk_sys_bF$buf0 d_lut_CLKBUF1
ACLKBUF1_insert84 [clk_sys_hier0_bF$buf4] clk_sys_bF$buf1 d_lut_CLKBUF1
ACLKBUF1_insert83 [clk_sys_hier0_bF$buf3] clk_sys_bF$buf2 d_lut_CLKBUF1
ACLKBUF1_insert82 [clk_sys_hier0_bF$buf2] clk_sys_bF$buf3 d_lut_CLKBUF1
ACLKBUF1_insert81 [clk_sys_hier0_bF$buf1] clk_sys_bF$buf4 d_lut_CLKBUF1
ACLKBUF1_insert80 [clk_sys_hier0_bF$buf0] clk_sys_bF$buf5 d_lut_CLKBUF1
ACLKBUF1_insert79 [clk_sys_hier0_bF$buf5] clk_sys_bF$buf6 d_lut_CLKBUF1
ACLKBUF1_insert78 [clk_sys_hier0_bF$buf4] clk_sys_bF$buf7 d_lut_CLKBUF1
ACLKBUF1_insert77 [clk_sys_hier0_bF$buf3] clk_sys_bF$buf8 d_lut_CLKBUF1
ACLKBUF1_insert76 [clk_sys_hier0_bF$buf2] clk_sys_bF$buf9 d_lut_CLKBUF1
ACLKBUF1_insert75 [clk_sys_hier0_bF$buf1] clk_sys_bF$buf10 d_lut_CLKBUF1
ACLKBUF1_insert74 [clk_sys_hier0_bF$buf0] clk_sys_bF$buf11 d_lut_CLKBUF1
ACLKBUF1_insert73 [clk_sys_hier0_bF$buf5] clk_sys_bF$buf12 d_lut_CLKBUF1
ACLKBUF1_insert72 [clk_sys_hier0_bF$buf4] clk_sys_bF$buf13 d_lut_CLKBUF1
ACLKBUF1_insert71 [clk_sys_hier0_bF$buf3] clk_sys_bF$buf14 d_lut_CLKBUF1
ACLKBUF1_insert70 [clk_sys_hier0_bF$buf2] clk_sys_bF$buf15 d_lut_CLKBUF1
ACLKBUF1_insert69 [clk_sys_hier0_bF$buf1] clk_sys_bF$buf16 d_lut_CLKBUF1
ACLKBUF1_insert68 [clk_sys_hier0_bF$buf0] clk_sys_bF$buf17 d_lut_CLKBUF1
ACLKBUF1_insert67 [clk_sys_hier0_bF$buf5] clk_sys_bF$buf18 d_lut_CLKBUF1
ACLKBUF1_insert66 [clk_sys_hier0_bF$buf4] clk_sys_bF$buf19 d_lut_CLKBUF1
ACLKBUF1_insert65 [clk_sys_hier0_bF$buf3] clk_sys_bF$buf20 d_lut_CLKBUF1
ACLKBUF1_insert64 [clk_sys_hier0_bF$buf2] clk_sys_bF$buf21 d_lut_CLKBUF1
ACLKBUF1_insert63 [clk_sys_hier0_bF$buf1] clk_sys_bF$buf22 d_lut_CLKBUF1
ACLKBUF1_insert62 [clk_sys_hier0_bF$buf0] clk_sys_bF$buf23 d_lut_CLKBUF1
ACLKBUF1_insert61 [clk_sys_hier0_bF$buf5] clk_sys_bF$buf24 d_lut_CLKBUF1
ACLKBUF1_insert60 [clk_sys_hier0_bF$buf4] clk_sys_bF$buf25 d_lut_CLKBUF1
ACLKBUF1_insert59 [clk_sys_hier0_bF$buf3] clk_sys_bF$buf26 d_lut_CLKBUF1
ACLKBUF1_insert58 [clk_sys_hier0_bF$buf2] clk_sys_bF$buf27 d_lut_CLKBUF1
ACLKBUF1_insert57 [clk_sys_hier0_bF$buf1] clk_sys_bF$buf28 d_lut_CLKBUF1
ACLKBUF1_insert56 [clk_sys_hier0_bF$buf0] clk_sys_bF$buf29 d_lut_CLKBUF1
ACLKBUF1_insert55 [clk_sys_hier0_bF$buf5] clk_sys_bF$buf30 d_lut_CLKBUF1
ACLKBUF1_insert54 [clk_sys_hier0_bF$buf4] clk_sys_bF$buf31 d_lut_CLKBUF1
ACLKBUF1_insert53 [clk_sys_hier0_bF$buf3] clk_sys_bF$buf32 d_lut_CLKBUF1
ACLKBUF1_insert52 [clk_sys_hier0_bF$buf2] clk_sys_bF$buf33 d_lut_CLKBUF1
ACLKBUF1_insert51 [clk_sys_hier0_bF$buf1] clk_sys_bF$buf34 d_lut_CLKBUF1
ACLKBUF1_insert50 [clk_sys_hier0_bF$buf0] clk_sys_bF$buf35 d_lut_CLKBUF1
ACLKBUF1_insert49 [clk_sys_hier0_bF$buf5] clk_sys_bF$buf36 d_lut_CLKBUF1
ACLKBUF1_insert48 [clk_sys_hier0_bF$buf4] clk_sys_bF$buf37 d_lut_CLKBUF1
ACLKBUF1_insert47 [clk_sys_hier0_bF$buf3] clk_sys_bF$buf38 d_lut_CLKBUF1
ACLKBUF1_insert46 [clk_sys_hier0_bF$buf2] clk_sys_bF$buf39 d_lut_CLKBUF1
ACLKBUF1_insert45 [clk_sys_hier0_bF$buf1] clk_sys_bF$buf40 d_lut_CLKBUF1
ACLKBUF1_insert44 [clk_sys_hier0_bF$buf0] clk_sys_bF$buf41 d_lut_CLKBUF1
ACLKBUF1_insert43 [clk_sys_hier0_bF$buf5] clk_sys_bF$buf42 d_lut_CLKBUF1
ACLKBUF1_insert42 [clk_sys_hier0_bF$buf4] clk_sys_bF$buf43 d_lut_CLKBUF1
ACLKBUF1_insert41 [clk_sys_hier0_bF$buf3] clk_sys_bF$buf44 d_lut_CLKBUF1
ACLKBUF1_insert40 [clk_sys_hier0_bF$buf2] clk_sys_bF$buf45 d_lut_CLKBUF1
ABUFX2_insert39 [\u_mem_serial.active_ibus\] \u_mem_serial.active_ibus_bF$buf0\ d_lut_BUFX2
ABUFX2_insert38 [\u_mem_serial.active_ibus\] \u_mem_serial.active_ibus_bF$buf1\ d_lut_BUFX2
ABUFX2_insert37 [\u_mem_serial.active_ibus\] \u_mem_serial.active_ibus_bF$buf2\ d_lut_BUFX2
ABUFX2_insert36 [\u_mem_serial.active_ibus\] \u_mem_serial.active_ibus_bF$buf3\ d_lut_BUFX2
ABUFX2_insert35 [\u_mem_serial.active_ibus\] \u_mem_serial.active_ibus_bF$buf4\ d_lut_BUFX2
ABUFX2_insert34 [\u_mem_serial.active_ibus\] \u_mem_serial.active_ibus_bF$buf5\ d_lut_BUFX2
ABUFX2_insert33 [\u_mem_serial.active_ibus\] \u_mem_serial.active_ibus_bF$buf6\ d_lut_BUFX2
ABUFX2_insert32 [_2062_] _2062__bF$buf0 d_lut_BUFX2
ABUFX2_insert31 [_2062_] _2062__bF$buf1 d_lut_BUFX2
ABUFX2_insert30 [_2062_] _2062__bF$buf2 d_lut_BUFX2
ABUFX2_insert29 [_2062_] _2062__bF$buf3 d_lut_BUFX2
ABUFX2_insert28 [_1715_] _1715__bF$buf0 d_lut_BUFX2
ABUFX2_insert27 [_1715_] _1715__bF$buf1 d_lut_BUFX2
ABUFX2_insert26 [_1715_] _1715__bF$buf2 d_lut_BUFX2
ABUFX2_insert25 [_1715_] _1715__bF$buf3 d_lut_BUFX2
ABUFX2_insert24 [_1715_] _1715__bF$buf4 d_lut_BUFX2
ABUFX2_insert23 [\u_rf_if.stream_cnt\_0_] \u_rf_if.stream_cnt_0_bF$buf0\ d_lut_BUFX2
ABUFX2_insert22 [\u_rf_if.stream_cnt\_0_] \u_rf_if.stream_cnt_0_bF$buf1\ d_lut_BUFX2
ABUFX2_insert21 [\u_rf_if.stream_cnt\_0_] \u_rf_if.stream_cnt_0_bF$buf2\ d_lut_BUFX2
ABUFX2_insert20 [\u_rf_if.stream_cnt\_0_] \u_rf_if.stream_cnt_0_bF$buf3\ d_lut_BUFX2
ABUFX2_insert19 [\u_rf_if.stream_cnt\_0_] \u_rf_if.stream_cnt_0_bF$buf4\ d_lut_BUFX2
ABUFX2_insert18 [\u_rf_if.stream_cnt\_0_] \u_rf_if.stream_cnt_0_bF$buf5\ d_lut_BUFX2
ABUFX2_insert17 [_1530_] _1530__bF$buf0 d_lut_BUFX2
ABUFX2_insert16 [_1530_] _1530__bF$buf1 d_lut_BUFX2
ABUFX2_insert15 [_1530_] _1530__bF$buf2 d_lut_BUFX2
ABUFX2_insert14 [_1530_] _1530__bF$buf3 d_lut_BUFX2
ABUFX2_insert13 [_1530_] _1530__bF$buf4 d_lut_BUFX2
ABUFX2_insert12 [_10_] _10__bF$buf0 d_lut_BUFX2
ABUFX2_insert11 [_10_] _10__bF$buf1 d_lut_BUFX2
ABUFX2_insert10 [_10_] _10__bF$buf2 d_lut_BUFX2
ABUFX2_insert9 [_10_] _10__bF$buf3 d_lut_BUFX2
ABUFX2_insert8 [_215_] _215__bF$buf0 d_lut_BUFX2
ABUFX2_insert7 [_215_] _215__bF$buf1 d_lut_BUFX2
ABUFX2_insert6 [_215_] _215__bF$buf2 d_lut_BUFX2
ABUFX2_insert5 [_215_] _215__bF$buf3 d_lut_BUFX2
ABUFX2_insert4 [_1304_] _1304__bF$buf0 d_lut_BUFX2
ABUFX2_insert3 [_1304_] _1304__bF$buf1 d_lut_BUFX2
ABUFX2_insert2 [_1304_] _1304__bF$buf2 d_lut_BUFX2
ABUFX2_insert1 [_1304_] _1304__bF$buf3 d_lut_BUFX2
ABUFX2_insert0 [_1304_] _1304__bF$buf4 d_lut_BUFX2
A_2163_ [_2161_] o_rf_sync d_lut_BUFX2
A_2164_ [_2160_] o_rf_sck d_lut_BUFX2
A_2165_ [_2159_] o_rf_mosi d_lut_BUFX2
A_2166_ [_2158_] o_mem_sync d_lut_BUFX2
A_2167_ [_2157_] o_mem_sck d_lut_BUFX2
A_2168_ [_2156_] o_mem_mosi d_lut_BUFX2
A_2169_ [vdd] o_uart_tx d_lut_BUFX2
A_2170_ [gnd] o_gpio_7_ d_lut_BUFX2
A_2171_ [gnd] o_gpio_6_ d_lut_BUFX2
A_2172_ [gnd] o_gpio_5_ d_lut_BUFX2
A_2173_ [gnd] o_gpio_4_ d_lut_BUFX2
A_2174_ [gnd] o_gpio_3_ d_lut_BUFX2
A_2175_ [gnd] o_gpio_2_ d_lut_BUFX2
A_2176_ [gnd] o_gpio_1_ d_lut_BUFX2
A_2177_ [gnd] o_gpio_0_ d_lut_BUFX2
A_2178_ [gnd] o_gpio_oe_7_ d_lut_BUFX2
A_2179_ [gnd] o_gpio_oe_6_ d_lut_BUFX2
A_2180_ [gnd] o_gpio_oe_5_ d_lut_BUFX2
A_2181_ [gnd] o_gpio_oe_4_ d_lut_BUFX2
A_2182_ [gnd] o_gpio_oe_3_ d_lut_BUFX2
A_2183_ [gnd] o_gpio_oe_2_ d_lut_BUFX2
A_2184_ [gnd] o_gpio_oe_1_ d_lut_BUFX2
A_2185_ [gnd] o_gpio_oe_0_ d_lut_BUFX2
A_2186_ _782_ i_clk_fast_bF$buf7 NULL NULL \u_mem_serial.shift_rx\_23_ NULL ddflop
A_2187_ _770_ i_clk_fast_bF$buf6 NULL NULL \u_mem_serial.bit_count\_3_ NULL ddflop
A_2188_ _793_ i_clk_fast_bF$buf5 NULL NULL \u_mem_serial.shift_rx\_15_ NULL ddflop
A_2189_ _771_ i_clk_fast_bF$buf4 NULL NULL \u_mem_serial.bit_count\_2_ NULL ddflop
A_2190_ _748_ i_clk_fast_bF$buf3 NULL NULL \u_mem_serial.shift_rx\_13_ NULL ddflop
A_2191_ _783_ i_clk_fast_bF$buf2 NULL NULL \u_mem_serial.shift_rx\_22_ NULL ddflop
A_2192_ _749_ i_clk_fast_bF$buf1 NULL NULL \u_mem_serial.shift_rx\_12_ NULL ddflop
A_2193_ _772_ i_clk_fast_bF$buf0 NULL NULL \u_mem_serial.bit_count\_1_ NULL ddflop
A_2194_ _750_ i_clk_fast_bF$buf7 NULL NULL \u_mem_serial.shift_rx\_11_ NULL ddflop
A_2195_ _789_ i_clk_fast_bF$buf6 NULL NULL \u_mem_serial.shift_rx\_18_ NULL ddflop
A_2196_ _751_ i_clk_fast_bF$buf5 NULL NULL \u_mem_serial.shift_rx\_10_ NULL ddflop
A_2197_ _773_ i_clk_fast_bF$buf4 NULL NULL \u_mem_serial.bit_count\_0_ NULL ddflop
A_2198_ [_1464_ _1465_ rst_bF$buf10] _793_ d_lut_AOI21X1
A_2199_ [\u_mem_serial.shift_rx\_14_ _1425_] _1465_ d_lut_NAND2X1
A_2200_ [_1316__bF$buf4 _1304__bF$buf4 \u_mem_serial.shift_rx\_15_] _1464_ d_lut_OAI21X1
A_2201_ [_1463_ _1418_ rst_bF$buf9] _792_ d_lut_AOI21X1
A_2202_ [_1414_ _1435_ _1462_] _1463_ d_lut_OAI21X1
A_2203_ [_794_ _1307_] _1462_ d_lut_NOR2X1
A_2204_ [_1460_ _1461_ rst_bF$buf8] _791_ d_lut_AOI21X1
A_2205_ [\u_mem_serial.shift_rx\_15_ _1425_] _1461_ d_lut_NAND2X1
A_2206_ [_1316__bF$buf3 _1304__bF$buf3 \u_mem_serial.shift_rx\_16_] _1460_ d_lut_OAI21X1
A_2207_ [_1458_ _1459_ rst_bF$buf7] _790_ d_lut_AOI21X1
A_2208_ [\u_mem_serial.shift_rx\_16_ _1425_] _1459_ d_lut_NAND2X1
A_2209_ [_1316__bF$buf2 _1304__bF$buf2 \u_mem_serial.shift_rx\_17_] _1458_ d_lut_OAI21X1
A_2210_ [_1456_ _1457_ rst_bF$buf6] _789_ d_lut_AOI21X1
A_2211_ [\u_mem_serial.shift_rx\_17_ _1425_] _1457_ d_lut_NAND2X1
A_2212_ [_1316__bF$buf1 _1304__bF$buf1 \u_mem_serial.shift_rx\_18_] _1456_ d_lut_OAI21X1
A_2213_ [_1454_ _1455_ rst_bF$buf5] _788_ d_lut_AOI21X1
A_2214_ [\u_mem_serial.shift_rx\_18_ _1425_] _1455_ d_lut_NAND2X1
A_2215_ [_1316__bF$buf0 _1304__bF$buf0 \u_mem_serial.shift_rx\_19_] _1454_ d_lut_OAI21X1
A_2216_ [_1453_ _1310_] _787_ d_lut_AND2X2
A_2217_ [_1414_ _1450_ _1452_] _1453_ d_lut_OAI21X1
A_2218_ [_1451_ _1450_ mem_ibus_ack_bF$buf4] _1452_ d_lut_OAI21X1
A_2219_ [_1379_] _1451_ d_lut_INVX1
A_2220_ [_1441_ _1444_ _1378_] _1450_ d_lut_NAND3X1
A_2221_ [_1448_ _1449_ rst_bF$buf4] _786_ d_lut_AOI21X1
A_2222_ [\u_mem_serial.shift_rx\_19_ _1425_] _1449_ d_lut_NAND2X1
A_2223_ [_1316__bF$buf4 _1304__bF$buf4 \u_mem_serial.shift_rx\_20_] _1448_ d_lut_OAI21X1
A_2224_ [_1446_ _1447_ rst_bF$buf3] _785_ d_lut_AOI21X1
A_2225_ [\u_mem_serial.shift_rx\_20_ _1425_] _1447_ d_lut_NAND2X1
A_2226_ [_1316__bF$buf3 _1304__bF$buf3 \u_mem_serial.shift_rx\_21_] _1446_ d_lut_OAI21X1
A_2227_ [_1443_ _1445_ rst_bF$buf2] _784_ d_lut_AOI21X1
A_2228_ [_1377_ _1444_] _1445_ d_lut_OR2X2
A_2229_ [_810_ _1297__bF$buf4] _1444_ d_lut_NAND2X1
A_2230_ [_1442_ _1385_ mem_dbus_ack_bF$buf6] _1443_ d_lut_OAI21X1
A_2231_ [_810_ _1414_ _1441_] _1442_ d_lut_OAI21X1
A_2232_ [\u_mem_serial.state\_1_ _1296_] _1441_ d_lut_NAND2X1
A_2233_ [_1439_ _1440_ rst_bF$buf1] _783_ d_lut_AOI21X1
A_2234_ [\u_mem_serial.shift_rx\_21_ _1425_] _1440_ d_lut_NAND2X1
A_2235_ [_1316__bF$buf2 _1304__bF$buf2 \u_mem_serial.shift_rx\_22_] _1439_ d_lut_OAI21X1
A_2236_ [_1437_ _1438_ rst_bF$buf0] _782_ d_lut_AOI21X1
A_2237_ [\u_mem_serial.shift_rx\_22_ _1425_] _1438_ d_lut_NAND2X1
A_2238_ [_1316__bF$buf1 _1304__bF$buf1 \u_mem_serial.shift_rx\_23_] _1437_ d_lut_OAI21X1
A_2239_ [_1436_ _1310_] _781_ d_lut_AND2X2
A_2240_ [_1414_ _1435_ _1381_] _1436_ d_lut_OAI21X1
A_2241_ [_1312_ _1378_] _1435_ d_lut_NAND2X1
A_2242_ [_1433_ _1434_ rst_bF$buf10] _780_ d_lut_AOI21X1
A_2243_ [\u_mem_serial.shift_rx\_23_ _1425_] _1434_ d_lut_NAND2X1
A_2244_ [_1316__bF$buf0 _1304__bF$buf0 \u_mem_serial.shift_rx\_24_] _1433_ d_lut_OAI21X1
A_2245_ [_1406_ _1408_ _1432_] _779_ d_lut_AOI21X1
A_2246_ [_1309_ _1431_ _1310_] _1432_ d_lut_OAI21X1
A_2247_ [\u_mem_serial.req_pending\ _1307_] _1431_ d_lut_NAND2X1
A_2248_ [_1429_ _1430_ rst_bF$buf9] _778_ d_lut_AOI21X1
A_2249_ [\u_mem_serial.shift_rx\_30_ _1425_] _1430_ d_lut_NAND2X1
A_2250_ [_1316__bF$buf4 _1304__bF$buf4 \u_mem_serial.shift_rx\_31_] _1429_ d_lut_OAI21X1
A_2251_ [_1427_ _1428_ rst_bF$buf8] _777_ d_lut_AOI21X1
A_2252_ [\u_mem_serial.shift_rx\_24_ _1425_] _1428_ d_lut_NAND2X1
A_2253_ [_1316__bF$buf3 _1304__bF$buf3 \u_mem_serial.shift_rx\_25_] _1427_ d_lut_OAI21X1
A_2254_ [_1424_ _1426_ rst_bF$buf7] _776_ d_lut_AOI21X1
A_2255_ [\u_mem_serial.shift_rx\_25_ _1425_] _1426_ d_lut_NAND2X1
A_2256_ [_1414_ _1302_] _1425_ d_lut_NOR2X1
A_2257_ [_1316__bF$buf2 _1304__bF$buf2 \u_mem_serial.shift_rx\_26_] _1424_ d_lut_OAI21X1
A_2258_ [_1086_ _1297__bF$buf3 _1423_] _775_ d_lut_AOI21X1
A_2259_ [\u_mem_serial.bit_count\_6_ _1315__bF$buf3 _1310_] _1423_ d_lut_OAI21X1
A_2260_ [_1422_ _1310_] _774_ d_lut_AND2X2
A_2261_ [_1421_ _1418_ _1419_] _1422_ d_lut_OAI21X1
A_2262_ [\u_cpu.o_ibus_cyc\ _1420_ _1310_] _1421_ d_lut_NAND3X1
A_2263_ [\u_cpu.o_dbus_cyc\] _1420_ d_lut_INVX1
A_2264_ [_1406_ _1408_ \u_mem_serial.active_ibus_bF$buf6\] _1419_ d_lut_OAI21X1
A_2265_ [_1410_] _1418_ d_lut_INVX1
A_2266_ [_1315__bF$buf2 \u_mem_serial.bit_count_0_bF$buf3\ _1417_] _773_ d_lut_AOI21X1
A_2267_ [\u_mem_serial.bit_count_0_bF$buf2\ _1297__bF$buf2 _1310_] _1417_ d_lut_OAI21X1
A_2268_ [_808_ _1297__bF$buf1 _1416_] _772_ d_lut_AOI21X1
A_2269_ [\u_mem_serial.bit_count\_1_ _1315__bF$buf1 _1310_] _1416_ d_lut_OAI21X1
A_2270_ [_1316__bF$buf1 _800_ _1415_] _771_ d_lut_AOI21X1
A_2271_ [_805_ _1414_ _1310_] _1415_ d_lut_OAI21X1
A_2272_ [_1297__bF$buf0] _1414_ d_lut_INVX2
A_2273_ [rst_bF$buf6 _1413_] _770_ d_lut_NOR2X1
A_2274_ [_853_ _1297__bF$buf4 _1316__bF$buf0 \u_mem_serial.bit_count\_3_] _1413_ d_lut_AOI22X1
A_2275_ [rst_bF$buf5 _1412_] _769_ d_lut_NOR2X1
A_2276_ [_1007_ _1297__bF$buf3 _1316__bF$buf4 \u_mem_serial.bit_count\_4_] _1412_ d_lut_AOI22X1
A_2277_ [_1411_ _1409_ rst_bF$buf4] _768_ d_lut_AOI21X1
A_2278_ [\u_cpu.o_dbus_cyc\ \u_cpu.bufreg2.i_op_b_sel\ _1410_] _1411_ d_lut_NAND3X1
A_2279_ [_1406_ _1408_] _1410_ d_lut_NOR2X1
A_2280_ [_1406_ _1408_ \u_mem_serial.active_we\] _1409_ d_lut_OAI21X1
A_2281_ [_1307_ _1407_] _1408_ d_lut_NAND2X1
A_2282_ [_1311_ _1309_] _1407_ d_lut_NOR2X1
A_2283_ [\u_mem_serial.req_pending\] _1406_ d_lut_INVX1
A_2284_ [_1405_ _1404_ rst_bF$buf3] _767_ d_lut_AOI21X1
A_2285_ [_1297__bF$buf2 _1046_] _1405_ d_lut_NAND2X1
A_2286_ [_1314_ _1313_ \u_mem_serial.bit_count\_5_] _1404_ d_lut_OAI21X1
A_2287_ [_1400_ _1403_ rst_bF$buf2] _766_ d_lut_AOI21X1
A_2288_ [_1315__bF$buf0 _1402_ _1303__bF$buf3] _1403_ d_lut_NAND3X1
A_2289_ [_1401_] _1402_ d_lut_INVX1
A_2290_ [\u_mem_serial.shift_rx\_26_ _1297__bF$buf1] _1401_ d_lut_NAND2X1
A_2291_ [_1316__bF$buf3 _1304__bF$buf1 \u_mem_serial.shift_rx\_27_] _1400_ d_lut_OAI21X1
A_2292_ [_1396_ _1399_ rst_bF$buf1] _765_ d_lut_AOI21X1
A_2293_ [_1315__bF$buf3 _1398_ _1303__bF$buf2] _1399_ d_lut_NAND3X1
A_2294_ [_1397_] _1398_ d_lut_INVX1
A_2295_ [\u_mem_serial.shift_rx\_27_ _1297__bF$buf0] _1397_ d_lut_NAND2X1
A_2296_ [_1316__bF$buf2 _1304__bF$buf0 \u_mem_serial.shift_rx\_28_] _1396_ d_lut_OAI21X1
A_2297_ [_1392_ _1395_ rst_bF$buf0] _764_ d_lut_AOI21X1
A_2298_ [_1315__bF$buf2 _1394_ _1303__bF$buf1] _1395_ d_lut_NAND3X1
A_2299_ [_1393_] _1394_ d_lut_INVX1
A_2300_ [\u_mem_serial.shift_rx\_28_ _1297__bF$buf4] _1393_ d_lut_NAND2X1
A_2301_ [_1316__bF$buf1 _1304__bF$buf4 \u_mem_serial.shift_rx\_29_] _1392_ d_lut_OAI21X1
A_2302_ [_1388_ _1391_ rst_bF$buf10] _763_ d_lut_AOI21X1
A_2303_ [_1315__bF$buf1 _1390_ _1303__bF$buf0] _1391_ d_lut_NAND3X1
A_2304_ [_1389_] _1390_ d_lut_INVX1
A_2305_ [\u_mem_serial.shift_rx\_29_ _1297__bF$buf3] _1389_ d_lut_NAND2X1
A_2306_ [_1316__bF$buf0 _1304__bF$buf3 \u_mem_serial.shift_rx\_30_] _1388_ d_lut_OAI21X1
A_2307_ [_1387_ _1310_] _762_ d_lut_AND2X2
A_2308_ [\u_mem_serial.state\_1_ _1384_ _1386_] _1387_ d_lut_OAI21X1
A_2309_ [_1385_] _1386_ d_lut_INVX1
A_2310_ [_1378_ _1383_ _1296_] _1385_ d_lut_AOI21X1
A_2311_ [_1383_ _1378_] _1384_ d_lut_NAND2X1
A_2312_ [_1313_ _1382_] _1383_ d_lut_NOR2X1
A_2313_ [\u_mem_serial.req_pending\ _1306_ _1381_] _1382_ d_lut_OAI21X1
A_2314_ [_1380_] _1381_ d_lut_INVX1
A_2315_ [_1296_ _1379_] _1380_ d_lut_NOR2X1
A_2316_ [\u_mem_serial.clk_sys_prev\ _1308_ \u_mem_serial.state\_1_] _1379_ d_lut_OAI21X1
A_2317_ [_1297__bF$buf2 _1377_] _1378_ d_lut_NAND2X1
A_2318_ [_1083_ \u_mem_serial.bit_count_0_bF$buf1\ _1299_] _1377_ d_lut_NAND3X1
A_2319_ [_1373_ _1376_ rst_bF$buf9] _761_ d_lut_AOI21X1
A_2320_ [_1315__bF$buf0 _1375_ _1303__bF$buf3] _1376_ d_lut_NAND3X1
A_2321_ [_1374_] _1375_ d_lut_INVX1
A_2322_ [i_mem_miso _1297__bF$buf1] _1374_ d_lut_NAND2X1
A_2323_ [_1316__bF$buf4 _1304__bF$buf2 \u_mem_serial.shift_rx\_0_] _1373_ d_lut_OAI21X1
A_2324_ [_1369_ _1372_ rst_bF$buf8] _760_ d_lut_AOI21X1
A_2325_ [_1315__bF$buf3 _1371_ _1303__bF$buf2] _1372_ d_lut_NAND3X1
A_2326_ [_1370_] _1371_ d_lut_INVX1
A_2327_ [\u_mem_serial.shift_rx\_0_ _1297__bF$buf0] _1370_ d_lut_NAND2X1
A_2328_ [_1316__bF$buf3 _1304__bF$buf1 \u_mem_serial.shift_rx\_1_] _1369_ d_lut_OAI21X1
A_2329_ [_1365_ _1368_ rst_bF$buf7] _759_ d_lut_AOI21X1
A_2330_ [_1315__bF$buf2 _1367_ _1303__bF$buf1] _1368_ d_lut_NAND3X1
A_2331_ [_1366_] _1367_ d_lut_INVX1
A_2332_ [\u_mem_serial.shift_rx\_1_ _1297__bF$buf4] _1366_ d_lut_NAND2X1
A_2333_ [_1316__bF$buf2 _1304__bF$buf0 \u_mem_serial.shift_rx\_2_] _1365_ d_lut_OAI21X1
A_2334_ [_1361_ _1364_ rst_bF$buf6] _758_ d_lut_AOI21X1
A_2335_ [_1315__bF$buf1 _1363_ _1303__bF$buf0] _1364_ d_lut_NAND3X1
A_2336_ [_1362_] _1363_ d_lut_INVX1
A_2337_ [\u_mem_serial.shift_rx\_2_ _1297__bF$buf3] _1362_ d_lut_NAND2X1
A_2338_ [_1316__bF$buf1 _1304__bF$buf4 \u_mem_serial.shift_rx\_3_] _1361_ d_lut_OAI21X1
A_2339_ [_1357_ _1360_ rst_bF$buf5] _757_ d_lut_AOI21X1
A_2340_ [_1315__bF$buf0 _1359_ _1303__bF$buf3] _1360_ d_lut_NAND3X1
A_2341_ [_1358_] _1359_ d_lut_INVX1
A_2342_ [\u_mem_serial.shift_rx\_3_ _1297__bF$buf2] _1358_ d_lut_NAND2X1
A_2343_ [_1316__bF$buf0 _1304__bF$buf3 \u_mem_serial.shift_rx\_4_] _1357_ d_lut_OAI21X1
A_2344_ [_1353_ _1356_ rst_bF$buf4] _756_ d_lut_AOI21X1
A_2345_ [_1315__bF$buf3 _1355_ _1303__bF$buf2] _1356_ d_lut_NAND3X1
A_2346_ [_1354_] _1355_ d_lut_INVX1
A_2347_ [\u_mem_serial.shift_rx\_4_ _1297__bF$buf1] _1354_ d_lut_NAND2X1
A_2348_ [_1316__bF$buf4 _1304__bF$buf2 \u_mem_serial.shift_rx\_5_] _1353_ d_lut_OAI21X1
A_2349_ [_1349_ _1352_ rst_bF$buf3] _755_ d_lut_AOI21X1
A_2350_ [_1315__bF$buf2 _1351_ _1303__bF$buf1] _1352_ d_lut_NAND3X1
A_2351_ [_1350_] _1351_ d_lut_INVX1
A_2352_ [\u_mem_serial.shift_rx\_5_ _1297__bF$buf0] _1350_ d_lut_NAND2X1
A_2353_ [_1316__bF$buf3 _1304__bF$buf1 \u_mem_serial.shift_rx\_6_] _1349_ d_lut_OAI21X1
A_2354_ [_1345_ _1348_ rst_bF$buf2] _754_ d_lut_AOI21X1
A_2355_ [_1315__bF$buf1 _1347_ _1303__bF$buf0] _1348_ d_lut_NAND3X1
A_2356_ [_1346_] _1347_ d_lut_INVX1
A_2357_ [\u_mem_serial.shift_rx\_6_ _1297__bF$buf4] _1346_ d_lut_NAND2X1
A_2358_ [_1316__bF$buf2 _1304__bF$buf0 \u_mem_serial.shift_rx\_7_] _1345_ d_lut_OAI21X1
A_2359_ [_1341_ _1344_ rst_bF$buf1] _753_ d_lut_AOI21X1
A_2360_ [_1315__bF$buf0 _1343_ _1303__bF$buf3] _1344_ d_lut_NAND3X1
A_2361_ [_1342_] _1343_ d_lut_INVX1
A_2362_ [\u_mem_serial.shift_rx\_7_ _1297__bF$buf3] _1342_ d_lut_NAND2X1
A_2363_ [_1316__bF$buf1 _1304__bF$buf4 \u_mem_serial.shift_rx\_8_] _1341_ d_lut_OAI21X1
A_2364_ [_1337_ _1340_ rst_bF$buf0] _752_ d_lut_AOI21X1
A_2365_ [_1315__bF$buf3 _1339_ _1303__bF$buf2] _1340_ d_lut_NAND3X1
A_2366_ [_1338_] _1339_ d_lut_INVX1
A_2367_ [\u_mem_serial.shift_rx\_8_ _1297__bF$buf2] _1338_ d_lut_NAND2X1
A_2368_ [_1316__bF$buf0 _1304__bF$buf3 \u_mem_serial.shift_rx\_9_] _1337_ d_lut_OAI21X1
A_2369_ [_1333_ _1336_ rst_bF$buf10] _751_ d_lut_AOI21X1
A_2370_ [_1315__bF$buf2 _1335_ _1303__bF$buf1] _1336_ d_lut_NAND3X1
A_2371_ [_1334_] _1335_ d_lut_INVX1
A_2372_ [\u_mem_serial.shift_rx\_9_ _1297__bF$buf1] _1334_ d_lut_NAND2X1
A_2373_ [_1316__bF$buf4 _1304__bF$buf2 \u_mem_serial.shift_rx\_10_] _1333_ d_lut_OAI21X1
A_2374_ [_1329_ _1332_ rst_bF$buf9] _750_ d_lut_AOI21X1
A_2375_ [_1315__bF$buf1 _1331_ _1303__bF$buf0] _1332_ d_lut_NAND3X1
A_2376_ [_1330_] _1331_ d_lut_INVX1
A_2377_ [\u_mem_serial.shift_rx\_10_ _1297__bF$buf0] _1330_ d_lut_NAND2X1
A_2378_ [_1316__bF$buf3 _1304__bF$buf1 \u_mem_serial.shift_rx\_11_] _1329_ d_lut_OAI21X1
A_2379_ [_1325_ _1328_ rst_bF$buf8] _749_ d_lut_AOI21X1
A_2380_ [_1315__bF$buf0 _1327_ _1303__bF$buf3] _1328_ d_lut_NAND3X1
A_2381_ [_1326_] _1327_ d_lut_INVX1
A_2382_ [\u_mem_serial.shift_rx\_11_ _1297__bF$buf4] _1326_ d_lut_NAND2X1
A_2383_ [_1316__bF$buf2 _1304__bF$buf0 \u_mem_serial.shift_rx\_12_] _1325_ d_lut_OAI21X1
A_2384_ [_1321_ _1324_ rst_bF$buf7] _748_ d_lut_AOI21X1