* XSpice netlist created from SPICE and liberty sources by spi2xspice.py
*SPICE netlist created from verilog structural netlist module my_mcu_top by vlog2Spice (qflow)
** Start of included library /usr/local/share/qflow/tech/etri050/etri050_stdcells.sp
* NGSPICE file created from khu_etri050_stdcells.ext - technology: scmos
** End of included library /usr/local/share/qflow/tech/etri050/etri050_stdcells.sp
.subckt my_mcu_top a_vdd a_gnd a_i_clk_fast a_i_clk_sys_ext a_i_rst_n a_o_rf_sync a_o_rf_sck a_o_rf_mosi a_i_rf_miso a_o_mem_sync a_o_mem_sck a_o_mem_mosi a_i_mem_miso
ACLKBUF1_insert191 [\gen_int_sys_clk.clk_sys_r\] \gen_int_sys_clk.clk_sys_r_hier0_bF$buf0\ d_lut_CLKBUF1
ACLKBUF1_insert190 [\gen_int_sys_clk.clk_sys_r\] \gen_int_sys_clk.clk_sys_r_hier0_bF$buf1\ d_lut_CLKBUF1
ACLKBUF1_insert189 [\gen_int_sys_clk.clk_sys_r\] \gen_int_sys_clk.clk_sys_r_hier0_bF$buf2\ d_lut_CLKBUF1
ACLKBUF1_insert188 [\gen_int_sys_clk.clk_sys_r\] \gen_int_sys_clk.clk_sys_r_hier0_bF$buf3\ d_lut_CLKBUF1
ACLKBUF1_insert187 [\gen_int_sys_clk.clk_sys_r\] \gen_int_sys_clk.clk_sys_r_hier0_bF$buf4\ d_lut_CLKBUF1
ACLKBUF1_insert186 [\gen_int_sys_clk.clk_sys_r\] \gen_int_sys_clk.clk_sys_r_hier0_bF$buf5\ d_lut_CLKBUF1
ABUFX2_insert185 [_556_] _556__bF$buf0 d_lut_BUFX2
ABUFX2_insert184 [_556_] _556__bF$buf1 d_lut_BUFX2
ABUFX2_insert183 [_556_] _556__bF$buf2 d_lut_BUFX2
ABUFX2_insert182 [_556_] _556__bF$buf3 d_lut_BUFX2
ABUFX2_insert181 [_556_] _556__bF$buf4 d_lut_BUFX2
ABUFX2_insert180 [_615_] _615__bF$buf0 d_lut_BUFX2
ABUFX2_insert179 [_615_] _615__bF$buf1 d_lut_BUFX2
ABUFX2_insert178 [_615_] _615__bF$buf2 d_lut_BUFX2
ABUFX2_insert177 [_615_] _615__bF$buf3 d_lut_BUFX2
ABUFX2_insert176 [_615_] _615__bF$buf4 d_lut_BUFX2
ABUFX2_insert175 [_1704_] _1704__bF$buf0 d_lut_BUFX2
ABUFX2_insert174 [_1704_] _1704__bF$buf1 d_lut_BUFX2
ABUFX2_insert173 [_1704_] _1704__bF$buf2 d_lut_BUFX2
ABUFX2_insert172 [_1704_] _1704__bF$buf3 d_lut_BUFX2
ACLKBUF1_insert171 [\gen_int_sys_clk.clk_sys_r_hier0_bF$buf5\] \gen_int_sys_clk.clk_sys_r_bF$buf0\ d_lut_CLKBUF1
ACLKBUF1_insert170 [\gen_int_sys_clk.clk_sys_r_hier0_bF$buf4\] \gen_int_sys_clk.clk_sys_r_bF$buf1\ d_lut_CLKBUF1
ACLKBUF1_insert169 [\gen_int_sys_clk.clk_sys_r_hier0_bF$buf3\] \gen_int_sys_clk.clk_sys_r_bF$buf2\ d_lut_CLKBUF1
ACLKBUF1_insert168 [\gen_int_sys_clk.clk_sys_r_hier0_bF$buf2\] \gen_int_sys_clk.clk_sys_r_bF$buf3\ d_lut_CLKBUF1
ACLKBUF1_insert167 [\gen_int_sys_clk.clk_sys_r_hier0_bF$buf1\] \gen_int_sys_clk.clk_sys_r_bF$buf4\ d_lut_CLKBUF1
ACLKBUF1_insert166 [\gen_int_sys_clk.clk_sys_r_hier0_bF$buf0\] \gen_int_sys_clk.clk_sys_r_bF$buf5\ d_lut_CLKBUF1
ACLKBUF1_insert165 [\gen_int_sys_clk.clk_sys_r_hier0_bF$buf5\] \gen_int_sys_clk.clk_sys_r_bF$buf6\ d_lut_CLKBUF1
ACLKBUF1_insert164 [\gen_int_sys_clk.clk_sys_r_hier0_bF$buf4\] \gen_int_sys_clk.clk_sys_r_bF$buf7\ d_lut_CLKBUF1
ACLKBUF1_insert163 [\gen_int_sys_clk.clk_sys_r_hier0_bF$buf3\] \gen_int_sys_clk.clk_sys_r_bF$buf8\ d_lut_CLKBUF1
ACLKBUF1_insert162 [\gen_int_sys_clk.clk_sys_r_hier0_bF$buf2\] \gen_int_sys_clk.clk_sys_r_bF$buf9\ d_lut_CLKBUF1
ACLKBUF1_insert161 [\gen_int_sys_clk.clk_sys_r_hier0_bF$buf1\] \gen_int_sys_clk.clk_sys_r_bF$buf10\ d_lut_CLKBUF1
ACLKBUF1_insert160 [\gen_int_sys_clk.clk_sys_r_hier0_bF$buf0\] \gen_int_sys_clk.clk_sys_r_bF$buf11\ d_lut_CLKBUF1
ACLKBUF1_insert159 [\gen_int_sys_clk.clk_sys_r_hier0_bF$buf5\] \gen_int_sys_clk.clk_sys_r_bF$buf12\ d_lut_CLKBUF1
ACLKBUF1_insert158 [\gen_int_sys_clk.clk_sys_r_hier0_bF$buf4\] \gen_int_sys_clk.clk_sys_r_bF$buf13\ d_lut_CLKBUF1
ACLKBUF1_insert157 [\gen_int_sys_clk.clk_sys_r_hier0_bF$buf3\] \gen_int_sys_clk.clk_sys_r_bF$buf14\ d_lut_CLKBUF1
ACLKBUF1_insert156 [\gen_int_sys_clk.clk_sys_r_hier0_bF$buf2\] \gen_int_sys_clk.clk_sys_r_bF$buf15\ d_lut_CLKBUF1
ACLKBUF1_insert155 [\gen_int_sys_clk.clk_sys_r_hier0_bF$buf1\] \gen_int_sys_clk.clk_sys_r_bF$buf16\ d_lut_CLKBUF1
ACLKBUF1_insert154 [\gen_int_sys_clk.clk_sys_r_hier0_bF$buf0\] \gen_int_sys_clk.clk_sys_r_bF$buf17\ d_lut_CLKBUF1
ACLKBUF1_insert153 [\gen_int_sys_clk.clk_sys_r_hier0_bF$buf5\] \gen_int_sys_clk.clk_sys_r_bF$buf18\ d_lut_CLKBUF1
ACLKBUF1_insert152 [\gen_int_sys_clk.clk_sys_r_hier0_bF$buf4\] \gen_int_sys_clk.clk_sys_r_bF$buf19\ d_lut_CLKBUF1
ACLKBUF1_insert151 [\gen_int_sys_clk.clk_sys_r_hier0_bF$buf3\] \gen_int_sys_clk.clk_sys_r_bF$buf20\ d_lut_CLKBUF1
ACLKBUF1_insert150 [\gen_int_sys_clk.clk_sys_r_hier0_bF$buf2\] \gen_int_sys_clk.clk_sys_r_bF$buf21\ d_lut_CLKBUF1
ACLKBUF1_insert149 [\gen_int_sys_clk.clk_sys_r_hier0_bF$buf1\] \gen_int_sys_clk.clk_sys_r_bF$buf22\ d_lut_CLKBUF1
ACLKBUF1_insert148 [\gen_int_sys_clk.clk_sys_r_hier0_bF$buf0\] \gen_int_sys_clk.clk_sys_r_bF$buf23\ d_lut_CLKBUF1
ACLKBUF1_insert147 [\gen_int_sys_clk.clk_sys_r_hier0_bF$buf5\] \gen_int_sys_clk.clk_sys_r_bF$buf24\ d_lut_CLKBUF1
ACLKBUF1_insert146 [\gen_int_sys_clk.clk_sys_r_hier0_bF$buf4\] \gen_int_sys_clk.clk_sys_r_bF$buf25\ d_lut_CLKBUF1
ACLKBUF1_insert145 [\gen_int_sys_clk.clk_sys_r_hier0_bF$buf3\] \gen_int_sys_clk.clk_sys_r_bF$buf26\ d_lut_CLKBUF1
ACLKBUF1_insert144 [\gen_int_sys_clk.clk_sys_r_hier0_bF$buf2\] \gen_int_sys_clk.clk_sys_r_bF$buf27\ d_lut_CLKBUF1
ACLKBUF1_insert143 [\gen_int_sys_clk.clk_sys_r_hier0_bF$buf1\] \gen_int_sys_clk.clk_sys_r_bF$buf28\ d_lut_CLKBUF1
ACLKBUF1_insert142 [\gen_int_sys_clk.clk_sys_r_hier0_bF$buf0\] \gen_int_sys_clk.clk_sys_r_bF$buf29\ d_lut_CLKBUF1
ACLKBUF1_insert141 [\gen_int_sys_clk.clk_sys_r_hier0_bF$buf5\] \gen_int_sys_clk.clk_sys_r_bF$buf30\ d_lut_CLKBUF1
ACLKBUF1_insert140 [\gen_int_sys_clk.clk_sys_r_hier0_bF$buf4\] \gen_int_sys_clk.clk_sys_r_bF$buf31\ d_lut_CLKBUF1
ACLKBUF1_insert139 [\gen_int_sys_clk.clk_sys_r_hier0_bF$buf3\] \gen_int_sys_clk.clk_sys_r_bF$buf32\ d_lut_CLKBUF1
ACLKBUF1_insert138 [\gen_int_sys_clk.clk_sys_r_hier0_bF$buf2\] \gen_int_sys_clk.clk_sys_r_bF$buf33\ d_lut_CLKBUF1
ACLKBUF1_insert137 [\gen_int_sys_clk.clk_sys_r_hier0_bF$buf1\] \gen_int_sys_clk.clk_sys_r_bF$buf34\ d_lut_CLKBUF1
ACLKBUF1_insert136 [\gen_int_sys_clk.clk_sys_r_hier0_bF$buf0\] \gen_int_sys_clk.clk_sys_r_bF$buf35\ d_lut_CLKBUF1
ACLKBUF1_insert135 [\gen_int_sys_clk.clk_sys_r_hier0_bF$buf5\] \gen_int_sys_clk.clk_sys_r_bF$buf36\ d_lut_CLKBUF1
ACLKBUF1_insert134 [\gen_int_sys_clk.clk_sys_r_hier0_bF$buf4\] \gen_int_sys_clk.clk_sys_r_bF$buf37\ d_lut_CLKBUF1
ACLKBUF1_insert133 [\gen_int_sys_clk.clk_sys_r_hier0_bF$buf3\] \gen_int_sys_clk.clk_sys_r_bF$buf38\ d_lut_CLKBUF1
ACLKBUF1_insert132 [\gen_int_sys_clk.clk_sys_r_hier0_bF$buf2\] \gen_int_sys_clk.clk_sys_r_bF$buf39\ d_lut_CLKBUF1
ACLKBUF1_insert131 [\gen_int_sys_clk.clk_sys_r_hier0_bF$buf1\] \gen_int_sys_clk.clk_sys_r_bF$buf40\ d_lut_CLKBUF1
ACLKBUF1_insert130 [\gen_int_sys_clk.clk_sys_r_hier0_bF$buf0\] \gen_int_sys_clk.clk_sys_r_bF$buf41\ d_lut_CLKBUF1
ACLKBUF1_insert129 [\gen_int_sys_clk.clk_sys_r_hier0_bF$buf5\] \gen_int_sys_clk.clk_sys_r_bF$buf42\ d_lut_CLKBUF1
ACLKBUF1_insert128 [\gen_int_sys_clk.clk_sys_r_hier0_bF$buf4\] \gen_int_sys_clk.clk_sys_r_bF$buf43\ d_lut_CLKBUF1
ACLKBUF1_insert127 [\gen_int_sys_clk.clk_sys_r_hier0_bF$buf3\] \gen_int_sys_clk.clk_sys_r_bF$buf44\ d_lut_CLKBUF1
ABUFX2_insert126 [_1040_] _1040__bF$buf0 d_lut_BUFX2
ABUFX2_insert125 [_1040_] _1040__bF$buf1 d_lut_BUFX2
ABUFX2_insert124 [_1040_] _1040__bF$buf2 d_lut_BUFX2
ABUFX2_insert123 [_1040_] _1040__bF$buf3 d_lut_BUFX2
ABUFX2_insert122 [_1040_] _1040__bF$buf4 d_lut_BUFX2
ABUFX2_insert121 [_1052_] _1052__bF$buf0 d_lut_BUFX2
ABUFX2_insert120 [_1052_] _1052__bF$buf1 d_lut_BUFX2
ABUFX2_insert119 [_1052_] _1052__bF$buf2 d_lut_BUFX2
ABUFX2_insert118 [_1052_] _1052__bF$buf3 d_lut_BUFX2
ABUFX2_insert117 [_1052_] _1052__bF$buf4 d_lut_BUFX2
ABUFX2_insert116 [_733_] _733__bF$buf0 d_lut_BUFX2
ABUFX2_insert115 [_733_] _733__bF$buf1 d_lut_BUFX2
ABUFX2_insert114 [_733_] _733__bF$buf2 d_lut_BUFX2
ABUFX2_insert113 [_733_] _733__bF$buf3 d_lut_BUFX2
ABUFX2_insert112 [_733_] _733__bF$buf4 d_lut_BUFX2
ABUFX2_insert111 [_733_] _733__bF$buf5 d_lut_BUFX2
ABUFX2_insert110 [_1058_] _1058__bF$buf0 d_lut_BUFX2
ABUFX2_insert109 [_1058_] _1058__bF$buf1 d_lut_BUFX2
ABUFX2_insert108 [_1058_] _1058__bF$buf2 d_lut_BUFX2
ABUFX2_insert107 [_1058_] _1058__bF$buf3 d_lut_BUFX2
ABUFX2_insert106 [_1058_] _1058__bF$buf4 d_lut_BUFX2
ABUFX2_insert105 [_1058_] _1058__bF$buf5 d_lut_BUFX2
ABUFX2_insert104 [_1058_] _1058__bF$buf6 d_lut_BUFX2
ABUFX2_insert103 [_1067_] _1067__bF$buf0 d_lut_BUFX2
ABUFX2_insert102 [_1067_] _1067__bF$buf1 d_lut_BUFX2
ABUFX2_insert101 [_1067_] _1067__bF$buf2 d_lut_BUFX2
ABUFX2_insert100 [_1067_] _1067__bF$buf3 d_lut_BUFX2
ABUFX2_insert99 [_1067_] _1067__bF$buf4 d_lut_BUFX2
ABUFX2_insert98 [_1126_] _1126__bF$buf0 d_lut_BUFX2
ABUFX2_insert97 [_1126_] _1126__bF$buf1 d_lut_BUFX2
ABUFX2_insert96 [_1126_] _1126__bF$buf2 d_lut_BUFX2
ABUFX2_insert95 [_1126_] _1126__bF$buf3 d_lut_BUFX2
ABUFX2_insert94 [_1126_] _1126__bF$buf4 d_lut_BUFX2
ABUFX2_insert93 [_1126_] _1126__bF$buf5 d_lut_BUFX2
ABUFX2_insert92 [_1126_] _1126__bF$buf6 d_lut_BUFX2
ABUFX2_insert91 [_1126_] _1126__bF$buf7 d_lut_BUFX2
ABUFX2_insert90 [\u_rf_if.stream_active\] \u_rf_if.stream_active_bF$buf0\ d_lut_BUFX2
ABUFX2_insert89 [\u_rf_if.stream_active\] \u_rf_if.stream_active_bF$buf1\ d_lut_BUFX2
ABUFX2_insert88 [\u_rf_if.stream_active\] \u_rf_if.stream_active_bF$buf2\ d_lut_BUFX2
ABUFX2_insert87 [\u_rf_if.stream_active\] \u_rf_if.stream_active_bF$buf3\ d_lut_BUFX2
ABUFX2_insert86 [\u_rf_if.stream_active\] \u_rf_if.stream_active_bF$buf4\ d_lut_BUFX2
ABUFX2_insert85 [\u_rf_if.stream_active\] \u_rf_if.stream_active_bF$buf5\ d_lut_BUFX2
ABUFX2_insert84 [\u_rf_if.stream_active\] \u_rf_if.stream_active_bF$buf6\ d_lut_BUFX2
ABUFX2_insert83 [\u_rf_if.stream_active\] \u_rf_if.stream_active_bF$buf7\ d_lut_BUFX2
ABUFX2_insert82 [_1693_] _1693__bF$buf0 d_lut_BUFX2
ABUFX2_insert81 [_1693_] _1693__bF$buf1 d_lut_BUFX2
ABUFX2_insert80 [_1693_] _1693__bF$buf2 d_lut_BUFX2
ABUFX2_insert79 [_1693_] _1693__bF$buf3 d_lut_BUFX2
ABUFX2_insert78 [_1693_] _1693__bF$buf4 d_lut_BUFX2
ABUFX2_insert77 [_1693_] _1693__bF$buf5 d_lut_BUFX2
ABUFX2_insert76 [mem_dbus_ack] mem_dbus_ack_bF$buf0 d_lut_BUFX2
ABUFX2_insert75 [mem_dbus_ack] mem_dbus_ack_bF$buf1 d_lut_BUFX2
ABUFX2_insert74 [mem_dbus_ack] mem_dbus_ack_bF$buf2 d_lut_BUFX2
ABUFX2_insert73 [mem_dbus_ack] mem_dbus_ack_bF$buf3 d_lut_BUFX2
ABUFX2_insert72 [mem_dbus_ack] mem_dbus_ack_bF$buf4 d_lut_BUFX2
ABUFX2_insert71 [mem_dbus_ack] mem_dbus_ack_bF$buf5 d_lut_BUFX2
ABUFX2_insert70 [mem_dbus_ack] mem_dbus_ack_bF$buf6 d_lut_BUFX2
ACLKBUF1_insert69 [i_clk_fast] i_clk_fast_bF$buf0 d_lut_CLKBUF1
ACLKBUF1_insert68 [i_clk_fast] i_clk_fast_bF$buf1 d_lut_CLKBUF1
ACLKBUF1_insert67 [i_clk_fast] i_clk_fast_bF$buf2 d_lut_CLKBUF1
ACLKBUF1_insert66 [i_clk_fast] i_clk_fast_bF$buf3 d_lut_CLKBUF1
ACLKBUF1_insert65 [i_clk_fast] i_clk_fast_bF$buf4 d_lut_CLKBUF1
ACLKBUF1_insert64 [i_clk_fast] i_clk_fast_bF$buf5 d_lut_CLKBUF1
ACLKBUF1_insert63 [i_clk_fast] i_clk_fast_bF$buf6 d_lut_CLKBUF1
ACLKBUF1_insert62 [i_clk_fast] i_clk_fast_bF$buf7 d_lut_CLKBUF1
ABUFX2_insert61 [_190_] _190__bF$buf0 d_lut_BUFX2
ABUFX2_insert60 [_190_] _190__bF$buf1 d_lut_BUFX2
ABUFX2_insert59 [_190_] _190__bF$buf2 d_lut_BUFX2
ABUFX2_insert58 [_190_] _190__bF$buf3 d_lut_BUFX2
ABUFX2_insert57 [_190_] _190__bF$buf4 d_lut_BUFX2
ABUFX2_insert56 [ibus_pending_ack] ibus_pending_ack_bF$buf0 d_lut_BUFX2
ABUFX2_insert55 [ibus_pending_ack] ibus_pending_ack_bF$buf1 d_lut_BUFX2
ABUFX2_insert54 [ibus_pending_ack] ibus_pending_ack_bF$buf2 d_lut_BUFX2
ABUFX2_insert53 [ibus_pending_ack] ibus_pending_ack_bF$buf3 d_lut_BUFX2
ABUFX2_insert52 [ibus_pending_ack] ibus_pending_ack_bF$buf4 d_lut_BUFX2
ABUFX2_insert51 [ibus_pending_ack] ibus_pending_ack_bF$buf5 d_lut_BUFX2
ABUFX2_insert50 [ibus_pending_ack] ibus_pending_ack_bF$buf6 d_lut_BUFX2
ABUFX2_insert49 [_440_] _440__bF$buf0 d_lut_BUFX2
ABUFX2_insert48 [_440_] _440__bF$buf1 d_lut_BUFX2
ABUFX2_insert47 [_440_] _440__bF$buf2 d_lut_BUFX2
ABUFX2_insert46 [_440_] _440__bF$buf3 d_lut_BUFX2
ABUFX2_insert45 [_440_] _440__bF$buf4 d_lut_BUFX2
ABUFX2_insert44 [_440_] _440__bF$buf5 d_lut_BUFX2
ABUFX2_insert43 [_12_] _12__bF$buf0 d_lut_BUFX2
ABUFX2_insert42 [_12_] _12__bF$buf1 d_lut_BUFX2
ABUFX2_insert41 [_12_] _12__bF$buf2 d_lut_BUFX2
ABUFX2_insert40 [_12_] _12__bF$buf3 d_lut_BUFX2
ABUFX2_insert39 [_12_] _12__bF$buf4 d_lut_BUFX2
ABUFX2_insert38 [_12_] _12__bF$buf5 d_lut_BUFX2
ABUFX2_insert37 [_12_] _12__bF$buf6 d_lut_BUFX2
ABUFX2_insert36 [_1062_] _1062__bF$buf0 d_lut_BUFX2
ABUFX2_insert35 [_1062_] _1062__bF$buf1 d_lut_BUFX2
ABUFX2_insert34 [_1062_] _1062__bF$buf2 d_lut_BUFX2
ABUFX2_insert33 [_1062_] _1062__bF$buf3 d_lut_BUFX2
ABUFX2_insert32 [_1062_] _1062__bF$buf4 d_lut_BUFX2
ABUFX2_insert31 [i_rst_n] i_rst_n_bF$buf0 d_lut_BUFX2
ABUFX2_insert30 [i_rst_n] i_rst_n_bF$buf1 d_lut_BUFX2
ABUFX2_insert29 [i_rst_n] i_rst_n_bF$buf2 d_lut_BUFX2
ABUFX2_insert28 [i_rst_n] i_rst_n_bF$buf3 d_lut_BUFX2
ABUFX2_insert27 [i_rst_n] i_rst_n_bF$buf4 d_lut_BUFX2
ABUFX2_insert26 [i_rst_n] i_rst_n_bF$buf5 d_lut_BUFX2
ABUFX2_insert25 [i_rst_n] i_rst_n_bF$buf6 d_lut_BUFX2
ABUFX2_insert24 [i_rst_n] i_rst_n_bF$buf7 d_lut_BUFX2
ABUFX2_insert23 [i_rst_n] i_rst_n_bF$buf8 d_lut_BUFX2
ABUFX2_insert22 [i_rst_n] i_rst_n_bF$buf9 d_lut_BUFX2
ABUFX2_insert21 [i_rst_n] i_rst_n_bF$buf10 d_lut_BUFX2
ABUFX2_insert20 [ren] ren_bF$buf0 d_lut_BUFX2
ABUFX2_insert19 [ren] ren_bF$buf1 d_lut_BUFX2
ABUFX2_insert18 [ren] ren_bF$buf2 d_lut_BUFX2
ABUFX2_insert17 [ren] ren_bF$buf3 d_lut_BUFX2
ABUFX2_insert16 [\u_mem_serial.active_we\] \u_mem_serial.active_we_bF$buf0\ d_lut_BUFX2
ABUFX2_insert15 [\u_mem_serial.active_we\] \u_mem_serial.active_we_bF$buf1\ d_lut_BUFX2
ABUFX2_insert14 [\u_mem_serial.active_we\] \u_mem_serial.active_we_bF$buf2\ d_lut_BUFX2
ABUFX2_insert13 [\u_mem_serial.active_we\] \u_mem_serial.active_we_bF$buf3\ d_lut_BUFX2
ABUFX2_insert12 [\u_mem_serial.active_we\] \u_mem_serial.active_we_bF$buf4\ d_lut_BUFX2
ABUFX2_insert11 [_661_] _661__bF$buf0 d_lut_BUFX2
ABUFX2_insert10 [_661_] _661__bF$buf1 d_lut_BUFX2
ABUFX2_insert9 [_661_] _661__bF$buf2 d_lut_BUFX2
ABUFX2_insert8 [_661_] _661__bF$buf3 d_lut_BUFX2
ABUFX2_insert7 [_661_] _661__bF$buf4 d_lut_BUFX2
ABUFX2_insert6 [_1824_] _1824__bF$buf0 d_lut_BUFX2
ABUFX2_insert5 [_1824_] _1824__bF$buf1 d_lut_BUFX2
ABUFX2_insert4 [_1824_] _1824__bF$buf2 d_lut_BUFX2
ABUFX2_insert3 [_1824_] _1824__bF$buf3 d_lut_BUFX2
ABUFX2_insert2 [_1824_] _1824__bF$buf4 d_lut_BUFX2
ABUFX2_insert1 [_1824_] _1824__bF$buf5 d_lut_BUFX2
ABUFX2_insert0 [_1824_] _1824__bF$buf6 d_lut_BUFX2
A_1912_ [_1910_] o_rf_sync d_lut_BUFX2
A_1913_ [_1909_] o_rf_sck d_lut_BUFX2
A_1914_ [_1908_] o_rf_mosi d_lut_BUFX2
A_1915_ [_1907_] o_mem_sync d_lut_BUFX2
A_1916_ [_1906_] o_mem_sck d_lut_BUFX2
A_1917_ [_0_] o_mem_mosi d_lut_BUFX2
A_1918_ [\u_mem_serial.bit_count\_0_ _1098_ \u_mem_serial.bit_count\_1_] _1095_ d_lut_OAI21X1
A_1919_ [\u_mem_serial.bit_count\_1_] _1094_ d_lut_INVX2
A_1920_ [_1097_ _1094_ _1106_] _1093_ d_lut_AOI21X1
A_1921_ [_1093_ _1095_ _1126__bF$buf7] _1514_ d_lut_AOI21X1
A_1922_ [_1094_ _1097_] _1092_ d_lut_NAND2X1
A_1923_ [\u_mem_serial.bit_count\_2_ _1092_ _1107_] _1091_ d_lut_OAI21X1
A_1924_ [\u_mem_serial.bit_count\_2_ _1092_ _1091_] _1090_ d_lut_AOI21X1
A_1925_ [_1126__bF$buf6 _1090_] _1513_ d_lut_NOR2X1
A_1926_ [\u_mem_serial.bit_count\_2_ _1092_] _1089_ d_lut_NOR2X1
A_1927_ [\u_mem_serial.bit_count\_3_ _1089_ _1105_] _1088_ d_lut_OAI21X1
A_1928_ [\u_mem_serial.bit_count\_3_ _1089_ _1088_] _1512_ d_lut_AOI21X1
A_1929_ [\u_mem_serial.bit_count\_4_] _1087_ d_lut_INVX1
A_1930_ [\u_mem_serial.bit_count\_3_] _1086_ d_lut_INVX1
A_1931_ [\u_mem_serial.bit_count\_2_] _1085_ d_lut_INVX1
A_1932_ [\u_mem_serial.bit_count\_1_ \u_mem_serial.bit_count\_0_] _1084_ d_lut_NOR2X1
A_1933_ [_1086_ _1085_ _1084_] _1083_ d_lut_NAND3X1
A_1934_ [_1083_ _1098_] _1082_ d_lut_NOR2X1
A_1935_ [_1087_ _1082_] _1081_ d_lut_NAND2X1
A_1936_ [_1083_ _1098_ \u_mem_serial.bit_count\_4_] _1080_ d_lut_OAI21X1
A_1937_ [_1081_ _1080_ _1104_] _1511_ d_lut_AOI21X1
A_1938_ [\u_mem_serial.bit_count\_5_] _1079_ d_lut_INVX1
A_1939_ [_1081_] _1078_ d_lut_INVX1
A_1940_ [\u_mem_serial.bit_count\_5_ \u_mem_serial.bit_count\_4_] _1077_ d_lut_NOR2X1
A_1941_ [_1077_ _1082_] _1076_ d_lut_NAND2X1
A_1942_ [_1079_ _1078_ _1076_] _1075_ d_lut_OAI21X1
A_1943_ [_1075_ _1105_] _1510_ d_lut_AND2X2
A_1944_ [\u_mem_serial.bit_count\_6_ \u_mem_serial.bit_count\_5_] _1074_ d_lut_NOR2X1
A_1945_ [_1087_ _1086_ _1085_] _1073_ d_lut_NAND3X1
A_1946_ [_1073_] _1072_ d_lut_INVX1
A_1947_ [_1094_ _1074_ _1072_] _1071_ d_lut_NAND3X1
A_1948_ [_1083_ \u_mem_serial.bit_count\_4_] _1070_ d_lut_OR2X2
A_1949_ [\u_mem_serial.bit_count\_5_ _1070_ \u_mem_serial.bit_count\_6_] _1069_ d_lut_OAI21X1
A_1950_ [_1071_ _1069_] _1068_ d_lut_NAND2X1
A_1951_ [_1068_ _1098_ _1107_] _1067_ d_lut_OAI21X1
A_1952_ [\u_cpu.bufreg2.dlo\_0_] _1066_ d_lut_INVX1
A_1953_ [\u_mem_serial.bit_count\_6_ _1079_] _1065_ d_lut_NOR2X1
A_1954_ [\u_mem_serial.bit_count\_0_] _1064_ d_lut_INVX1
A_1955_ [\u_mem_serial.bit_count\_1_ _1064_] _1063_ d_lut_NOR2X1
A_1956_ [_1065_ _1063_ _1072_] _1062_ d_lut_NAND3X1
A_1957_ [_1066_ _1062__bF$buf4 \u_mem_serial.active_we_bF$buf4\] _1061_ d_lut_OAI21X1
A_1958_ [_1072_ _1094_ _1079_] _1060_ d_lut_AOI21X1
A_1959_ [\u_mem_serial.state\_0_] _1059_ d_lut_INVX1
A_1960_ [\u_mem_serial.state\_1_ _1059_] _1058_ d_lut_NOR2X1
A_1961_ [_1058__bF$buf6] _1057_ d_lut_INVX1
A_1962_ [\u_mem_serial.bit_count\_6_ _1057_] _1056_ d_lut_NOR2X1
A_1963_ [\u_mem_serial.active_we_bF$buf3\ i_mem_miso _1056_] _1055_ d_lut_OAI21X1
A_1964_ [_1060_ _1055_] _1054_ d_lut_NOR2X1
A_1965_ [_1061_ _1054_] _1053_ d_lut_NAND2X1
A_1966_ [_1117_ _1120_ _1124_] _1052_ d_lut_OAI21X1
A_1967_ [\u_mem_serial.state\_1_ _1059_ \u_cpu.ctrl.pc\_0_] _1051_ d_lut_OAI21X1
A_1968_ [_1051_ _1052__bF$buf4 _1053_] _1050_ d_lut_OAI21X1
A_1969_ [_1050_ \u_mem_serial.shift_reg\_0_ _1067__bF$buf4] _1049_ d_lut_MUX2X1
A_1970_ [_1126__bF$buf5 _1049_] _1509_ d_lut_NOR2X1
A_1971_ [\u_mem_serial.active_we_bF$buf2\] _1048_ d_lut_INVX1
A_1972_ [\u_cpu.bufreg2.dlo\_1_] _1047_ d_lut_INVX1
A_1973_ [_1048_ _1047_] _1046_ d_lut_NOR2X1
A_1974_ [\u_mem_serial.shift_reg\_0_ _1046_ _1062__bF$buf3] _1045_ d_lut_MUX2X1
A_1975_ [\u_mem_serial.state\_1_ _1059_ \u_cpu.ctrl.o_ibus_adr\_1_] _1044_ d_lut_OAI21X1
A_1976_ [_1052__bF$buf3 _1044_ _1057_ _1045_] _1043_ d_lut_OAI22X1
A_1977_ [_1043_ \u_mem_serial.shift_reg\_1_ _1067__bF$buf3] _1042_ d_lut_MUX2X1
A_1978_ [_1126__bF$buf4 _1042_] _1508_ d_lut_NOR2X1
A_1979_ [\u_mem_serial.shift_reg\_1_] _1041_ d_lut_INVX1
A_1980_ [_1062__bF$buf2] _1040_ d_lut_INVX8
A_1981_ [_1041_ _1040__bF$buf4] _1039_ d_lut_NOR2X1
A_1982_ [\u_mem_serial.active_we_bF$buf1\ \u_cpu.bufreg2.dlo\_2_] _1038_ d_lut_NAND2X1
A_1983_ [_1038_ _1062__bF$buf1] _1037_ d_lut_NOR2X1
A_1984_ [_1037_ _1039_ _1058__bF$buf5] _1036_ d_lut_OAI21X1
A_1985_ [\u_cpu.bufreg.data\_2_ \u_cpu.ctrl.o_ibus_adr\_2_ _1052__bF$buf2] _1035_ d_lut_MUX2X1
A_1986_ [_1058__bF$buf4 _1035_ _1036_] _1034_ d_lut_OAI21X1
A_1987_ [_1034_ \u_mem_serial.shift_reg\_2_ _1067__bF$buf2] _1033_ d_lut_MUX2X1
A_1988_ [_1126__bF$buf3 _1033_] _1507_ d_lut_NOR2X1
A_1989_ [\u_mem_serial.shift_reg\_2_] _1032_ d_lut_INVX1
A_1990_ [_1032_ _1040__bF$buf3] _1031_ d_lut_NOR2X1
A_1991_ [\u_mem_serial.active_we_bF$buf0\ \u_cpu.bufreg2.dlo\_3_] _1030_ d_lut_NAND2X1
A_1992_ [_1030_ _1062__bF$buf0] _1029_ d_lut_NOR2X1
A_1993_ [_1029_ _1031_ _1058__bF$buf3] _1028_ d_lut_OAI21X1
A_1994_ [\u_cpu.bufreg.data\_3_ \u_cpu.ctrl.o_ibus_adr\_3_ _1052__bF$buf1] _1027_ d_lut_MUX2X1
A_1995_ [_1058__bF$buf2 _1027_ _1028_] _1026_ d_lut_OAI21X1
A_1996_ [_1026_ \u_mem_serial.shift_reg\_3_ _1067__bF$buf1] _1025_ d_lut_MUX2X1
A_1997_ [_1126__bF$buf2 _1025_] _1506_ d_lut_NOR2X1
A_1998_ [\u_mem_serial.shift_reg\_3_] _1024_ d_lut_INVX1
A_1999_ [_1024_ _1040__bF$buf2] _1023_ d_lut_NOR2X1
A_2000_ [\u_mem_serial.active_we_bF$buf4\ \u_cpu.bufreg2.dlo\_4_] _1022_ d_lut_NAND2X1
A_2001_ [_1022_ _1062__bF$buf4] _1021_ d_lut_NOR2X1
A_2002_ [_1021_ _1023_ _1058__bF$buf1] _1020_ d_lut_OAI21X1
A_2003_ [\u_cpu.bufreg.data\_4_ \u_cpu.ctrl.o_ibus_adr\_4_ _1052__bF$buf0] _1019_ d_lut_MUX2X1
A_2004_ [_1058__bF$buf0 _1019_ _1020_] _1018_ d_lut_OAI21X1
A_2005_ [_1018_ \u_mem_serial.shift_reg\_4_ _1067__bF$buf0] _1017_ d_lut_MUX2X1
A_2006_ [_1126__bF$buf1 _1017_] _1505_ d_lut_NOR2X1
A_2007_ [\u_mem_serial.shift_reg\_4_] _1016_ d_lut_INVX1
A_2008_ [_1016_ _1040__bF$buf1] _1015_ d_lut_NOR2X1
A_2009_ [\u_mem_serial.active_we_bF$buf3\ \u_cpu.bufreg2.dlo\_5_] _1014_ d_lut_NAND2X1
A_2010_ [_1014_ _1062__bF$buf3] _1013_ d_lut_NOR2X1
A_2011_ [_1013_ _1015_ _1058__bF$buf6] _1012_ d_lut_OAI21X1
A_2012_ [\u_cpu.bufreg.data\_5_ \u_cpu.ctrl.o_ibus_adr\_5_ _1052__bF$buf4] _1011_ d_lut_MUX2X1
A_2013_ [_1058__bF$buf5 _1011_ _1012_] _1010_ d_lut_OAI21X1
A_2014_ [_1010_ \u_mem_serial.shift_reg\_5_ _1067__bF$buf4] _1009_ d_lut_MUX2X1
A_2015_ [_1126__bF$buf0 _1009_] _1504_ d_lut_NOR2X1
A_2016_ [\u_mem_serial.shift_reg\_5_] _1008_ d_lut_INVX1
A_2017_ [_1008_ _1040__bF$buf0] _1007_ d_lut_NOR2X1
A_2018_ [\u_mem_serial.active_we_bF$buf2\ \u_cpu.bufreg2.dlo\_6_] _1006_ d_lut_NAND2X1
A_2019_ [_1006_ _1062__bF$buf2] _1005_ d_lut_NOR2X1
A_2020_ [_1005_ _1007_ _1058__bF$buf4] _1004_ d_lut_OAI21X1
A_2021_ [\u_cpu.bufreg.data\_6_ \u_cpu.ctrl.o_ibus_adr\_6_ _1052__bF$buf3] _1003_ d_lut_MUX2X1
A_2022_ [_1058__bF$buf3 _1003_ _1004_] _1002_ d_lut_OAI21X1
A_2023_ [_1002_ \u_mem_serial.shift_reg\_6_ _1067__bF$buf3] _1001_ d_lut_MUX2X1
A_2024_ [_1126__bF$buf7 _1001_] _1503_ d_lut_NOR2X1
A_2025_ [\u_mem_serial.shift_reg\_6_] _1000_ d_lut_INVX1
A_2026_ [_1000_ _1040__bF$buf4] _999_ d_lut_NOR2X1
A_2027_ [\u_mem_serial.active_we_bF$buf1\ \u_cpu.bufreg2.dlo\_7_] _998_ d_lut_NAND2X1
A_2028_ [_998_ _1062__bF$buf1] _997_ d_lut_NOR2X1
A_2029_ [_997_ _999_ _1058__bF$buf2] _996_ d_lut_OAI21X1
A_2030_ [\u_cpu.bufreg.data\_7_ \u_cpu.ctrl.o_ibus_adr\_7_ _1052__bF$buf2] _995_ d_lut_MUX2X1
A_2031_ [_1058__bF$buf1 _995_ _996_] _994_ d_lut_OAI21X1
A_2032_ [_994_ \u_mem_serial.shift_reg\_7_ _1067__bF$buf2] _993_ d_lut_MUX2X1
A_2033_ [_1126__bF$buf6 _993_] _1502_ d_lut_NOR2X1
A_2034_ [\u_mem_serial.shift_reg\_7_] _992_ d_lut_INVX1
A_2035_ [_992_ _1040__bF$buf3] _991_ d_lut_NOR2X1
A_2036_ [\u_mem_serial.active_we_bF$buf0\ \u_cpu.bufreg2.dlo\_8_] _990_ d_lut_NAND2X1
A_2037_ [_990_ _1062__bF$buf0] _989_ d_lut_NOR2X1
A_2038_ [_989_ _991_ _1058__bF$buf0] _988_ d_lut_OAI21X1
A_2039_ [\u_cpu.bufreg.data\_8_ \u_cpu.ctrl.o_ibus_adr\_8_ _1052__bF$buf1] _987_ d_lut_MUX2X1
A_2040_ [_1058__bF$buf6 _987_ _988_] _986_ d_lut_OAI21X1
A_2041_ [_986_ \u_mem_serial.shift_reg\_8_ _1067__bF$buf1] _985_ d_lut_MUX2X1
A_2042_ [_1126__bF$buf5 _985_] _1501_ d_lut_NOR2X1
A_2043_ [\u_mem_serial.shift_reg\_8_] _984_ d_lut_INVX1
A_2044_ [_984_ _1040__bF$buf2] _983_ d_lut_NOR2X1
A_2045_ [\u_mem_serial.active_we_bF$buf4\ \u_cpu.bufreg2.dlo\_9_] _982_ d_lut_NAND2X1
A_2046_ [_982_ _1062__bF$buf4] _981_ d_lut_NOR2X1
A_2047_ [_981_ _983_ _1058__bF$buf5] _980_ d_lut_OAI21X1
A_2048_ [\u_cpu.bufreg.data\_9_ \u_cpu.ctrl.o_ibus_adr\_9_ _1052__bF$buf0] _979_ d_lut_MUX2X1
A_2049_ [_1058__bF$buf4 _979_ _980_] _978_ d_lut_OAI21X1
A_2050_ [_978_ \u_mem_serial.shift_reg\_9_ _1067__bF$buf0] _977_ d_lut_MUX2X1
A_2051_ [_1126__bF$buf4 _977_] _1500_ d_lut_NOR2X1
A_2052_ [\u_mem_serial.shift_reg\_9_] _976_ d_lut_INVX1
A_2053_ [_976_ _1040__bF$buf1] _975_ d_lut_NOR2X1
A_2054_ [\u_mem_serial.active_we_bF$buf3\ \u_cpu.bufreg2.dlo\_10_] _974_ d_lut_NAND2X1
A_2055_ [_974_ _1062__bF$buf3] _973_ d_lut_NOR2X1
A_2056_ [_973_ _975_ _1058__bF$buf3] _972_ d_lut_OAI21X1
A_2057_ [\u_cpu.bufreg.data\_10_ \u_cpu.ctrl.o_ibus_adr\_10_ _1052__bF$buf4] _971_ d_lut_MUX2X1
A_2058_ [_1058__bF$buf2 _971_ _972_] _970_ d_lut_OAI21X1
A_2059_ [_970_ \u_mem_serial.shift_reg\_10_ _1067__bF$buf4] _969_ d_lut_MUX2X1
A_2060_ [_1126__bF$buf3 _969_] _1499_ d_lut_NOR2X1
A_2061_ [\u_mem_serial.shift_reg\_10_] _968_ d_lut_INVX1
A_2062_ [_968_ _1040__bF$buf0] _967_ d_lut_NOR2X1
A_2063_ [\u_mem_serial.active_we_bF$buf2\ \u_cpu.bufreg2.dlo\_11_] _966_ d_lut_NAND2X1
A_2064_ [_966_ _1062__bF$buf2] _965_ d_lut_NOR2X1
A_2065_ [_965_ _967_ _1058__bF$buf1] _964_ d_lut_OAI21X1
A_2066_ [\u_cpu.bufreg.data\_11_ \u_cpu.ctrl.o_ibus_adr\_11_ _1052__bF$buf3] _963_ d_lut_MUX2X1
A_2067_ [_1058__bF$buf0 _963_ _964_] _962_ d_lut_OAI21X1
A_2068_ [_962_ \u_mem_serial.shift_reg\_11_ _1067__bF$buf3] _961_ d_lut_MUX2X1
A_2069_ [_1126__bF$buf2 _961_] _1498_ d_lut_NOR2X1
A_2070_ [\u_mem_serial.shift_reg\_11_] _960_ d_lut_INVX1
A_2071_ [_960_ _1040__bF$buf4] _959_ d_lut_NOR2X1
A_2072_ [\u_mem_serial.active_we_bF$buf1\ \u_cpu.bufreg2.dlo\_12_] _958_ d_lut_NAND2X1
A_2073_ [_958_ _1062__bF$buf1] _957_ d_lut_NOR2X1
A_2074_ [_957_ _959_ _1058__bF$buf6] _956_ d_lut_OAI21X1
A_2075_ [\u_cpu.bufreg.data\_12_ \u_cpu.ctrl.o_ibus_adr\_12_ _1052__bF$buf2] _955_ d_lut_MUX2X1
A_2076_ [_1058__bF$buf5 _955_ _956_] _954_ d_lut_OAI21X1
A_2077_ [_954_ \u_mem_serial.shift_reg\_12_ _1067__bF$buf2] _953_ d_lut_MUX2X1
A_2078_ [_1126__bF$buf1 _953_] _1497_ d_lut_NOR2X1
A_2079_ [\u_mem_serial.shift_reg\_12_] _952_ d_lut_INVX1
A_2080_ [_952_ _1040__bF$buf3] _951_ d_lut_NOR2X1
A_2081_ [\u_mem_serial.active_we_bF$buf0\ \u_cpu.bufreg2.dlo\_13_] _950_ d_lut_NAND2X1
A_2082_ [_950_ _1062__bF$buf0] _949_ d_lut_NOR2X1
A_2083_ [_949_ _951_ _1058__bF$buf4] _948_ d_lut_OAI21X1
A_2084_ [\u_cpu.bufreg.data\_13_ \u_cpu.ctrl.o_ibus_adr\_13_ _1052__bF$buf1] _947_ d_lut_MUX2X1
A_2085_ [_1058__bF$buf3 _947_ _948_] _946_ d_lut_OAI21X1
A_2086_ [_946_ \u_mem_serial.shift_reg\_13_ _1067__bF$buf1] _945_ d_lut_MUX2X1
A_2087_ [_1126__bF$buf0 _945_] _1496_ d_lut_NOR2X1
A_2088_ [\u_mem_serial.shift_reg\_13_] _944_ d_lut_INVX1
A_2089_ [_944_ _1040__bF$buf2] _943_ d_lut_NOR2X1
A_2090_ [\u_mem_serial.active_we_bF$buf4\ \u_cpu.bufreg2.dlo\_14_] _942_ d_lut_NAND2X1
A_2091_ [_942_ _1062__bF$buf4] _941_ d_lut_NOR2X1
A_2092_ [_941_ _943_ _1058__bF$buf2] _940_ d_lut_OAI21X1
A_2093_ [\u_cpu.bufreg.data\_14_ \u_cpu.ctrl.o_ibus_adr\_14_ _1052__bF$buf0] _939_ d_lut_MUX2X1
A_2094_ [_1058__bF$buf1 _939_ _940_] _938_ d_lut_OAI21X1
A_2095_ [_938_ \u_mem_serial.shift_reg\_14_ _1067__bF$buf0] _937_ d_lut_MUX2X1
A_2096_ [_1126__bF$buf7 _937_] _1495_ d_lut_NOR2X1
A_2097_ [\u_mem_serial.shift_reg\_14_] _936_ d_lut_INVX1
A_2098_ [_936_ _1040__bF$buf1] _935_ d_lut_NOR2X1
A_2099_ [\u_mem_serial.active_we_bF$buf3\ \u_cpu.bufreg2.dlo\_15_] _934_ d_lut_NAND2X1
A_2100_ [_934_ _1062__bF$buf3] _933_ d_lut_NOR2X1
A_2101_ [_933_ _935_ _1058__bF$buf0] _932_ d_lut_OAI21X1
A_2102_ [\u_cpu.bufreg.data\_15_ \u_cpu.ctrl.o_ibus_adr\_15_ _1052__bF$buf4] _931_ d_lut_MUX2X1
A_2103_ [_1058__bF$buf6 _931_ _932_] _930_ d_lut_OAI21X1
A_2104_ [_930_ \u_mem_serial.shift_reg\_15_ _1067__bF$buf4] _929_ d_lut_MUX2X1
A_2105_ [_1126__bF$buf6 _929_] _1494_ d_lut_NOR2X1
A_2106_ [\u_mem_serial.shift_reg\_15_] _928_ d_lut_INVX1
A_2107_ [_928_ _1040__bF$buf0] _927_ d_lut_NOR2X1
A_2108_ [\u_mem_serial.active_we_bF$buf2\ \u_cpu.bufreg2.dlo\_16_] _926_ d_lut_NAND2X1
A_2109_ [_926_ _1062__bF$buf2] _925_ d_lut_NOR2X1
A_2110_ [_925_ _927_ _1058__bF$buf5] _924_ d_lut_OAI21X1
A_2111_ [\u_cpu.bufreg.data\_16_ \u_cpu.ctrl.o_ibus_adr\_16_ _1052__bF$buf3] _923_ d_lut_MUX2X1
A_2112_ [_1058__bF$buf4 _923_ _924_] _922_ d_lut_OAI21X1
A_2113_ [_922_ \u_mem_serial.shift_reg\_16_ _1067__bF$buf3] _921_ d_lut_MUX2X1
A_2114_ [_1126__bF$buf5 _921_] _1493_ d_lut_NOR2X1
A_2115_ [\u_mem_serial.shift_reg\_16_] _920_ d_lut_INVX1
A_2116_ [_920_ _1040__bF$buf4] _919_ d_lut_NOR2X1
A_2117_ [\u_mem_serial.active_we_bF$buf1\ \u_cpu.bufreg2.dlo\_17_] _918_ d_lut_NAND2X1
A_2118_ [_918_ _1062__bF$buf1] _917_ d_lut_NOR2X1
A_2119_ [_917_ _919_ _1058__bF$buf3] _916_ d_lut_OAI21X1
A_2120_ [\u_cpu.bufreg.data\_17_ \u_cpu.ctrl.o_ibus_adr\_17_ _1052__bF$buf2] _915_ d_lut_MUX2X1
A_2121_ [_1058__bF$buf2 _915_ _916_] _914_ d_lut_OAI21X1
A_2122_ [_914_ \u_mem_serial.shift_reg\_17_ _1067__bF$buf2] _913_ d_lut_MUX2X1
A_2123_ [_1126__bF$buf4 _913_] _1492_ d_lut_NOR2X1
A_2124_ [\u_mem_serial.shift_reg\_17_] _912_ d_lut_INVX1
A_2125_ [_912_ _1040__bF$buf3] _911_ d_lut_NOR2X1
A_2126_ [\u_mem_serial.active_we_bF$buf0\ \u_cpu.bufreg2.dlo\_18_] _910_ d_lut_NAND2X1
A_2127_ [_910_ _1062__bF$buf0] _909_ d_lut_NOR2X1
A_2128_ [_909_ _911_ _1058__bF$buf1] _908_ d_lut_OAI21X1
A_2129_ [\u_cpu.bufreg.data\_18_ \u_cpu.ctrl.o_ibus_adr\_18_ _1052__bF$buf1] _907_ d_lut_MUX2X1
A_2130_ [_1058__bF$buf0 _907_ _908_] _906_ d_lut_OAI21X1
A_2131_ [_906_ \u_mem_serial.shift_reg\_18_ _1067__bF$buf1] _905_ d_lut_MUX2X1
A_2132_ [_1126__bF$buf3 _905_] _1491_ d_lut_NOR2X1
A_2133_ [\u_mem_serial.shift_reg\_18_] _904_ d_lut_INVX1
A_2134_ [_904_ _1040__bF$buf2] _903_ d_lut_NOR2X1
A_2135_ [\u_mem_serial.active_we_bF$buf4\ \u_cpu.bufreg2.dlo\_19_] _902_ d_lut_NAND2X1
A_2136_ [_902_ _1062__bF$buf4] _901_ d_lut_NOR2X1
A_2137_ [_901_ _903_ _1058__bF$buf6] _900_ d_lut_OAI21X1
A_2138_ [\u_cpu.bufreg.data\_19_ \u_cpu.ctrl.o_ibus_adr\_19_ _1052__bF$buf0] _899_ d_lut_MUX2X1
A_2139_ [_1058__bF$buf5 _899_ _900_] _898_ d_lut_OAI21X1
A_2140_ [_898_ \u_mem_serial.shift_reg\_19_ _1067__bF$buf0] _897_ d_lut_MUX2X1
A_2141_ [_1126__bF$buf2 _897_] _1490_ d_lut_NOR2X1
A_2142_ [\u_mem_serial.shift_reg\_19_] _896_ d_lut_INVX1
A_2143_ [_896_ _1040__bF$buf1] _895_ d_lut_NOR2X1
A_2144_ [\u_mem_serial.active_we_bF$buf3\ \u_cpu.bufreg2.dlo\_20_] _894_ d_lut_NAND2X1
A_2145_ [_894_ _1062__bF$buf3] _893_ d_lut_NOR2X1
A_2146_ [_893_ _895_ _1058__bF$buf4] _892_ d_lut_OAI21X1
A_2147_ [\u_cpu.bufreg.data\_20_ \u_cpu.ctrl.o_ibus_adr\_20_ _1052__bF$buf4] _891_ d_lut_MUX2X1
A_2148_ [_1058__bF$buf3 _891_ _892_] _890_ d_lut_OAI21X1
A_2149_ [_890_ \u_mem_serial.shift_reg\_20_ _1067__bF$buf4] _889_ d_lut_MUX2X1
A_2150_ [_1126__bF$buf1 _889_] _1489_ d_lut_NOR2X1
A_2151_ [\u_mem_serial.shift_reg\_20_] _888_ d_lut_INVX1
A_2152_ [_888_ _1040__bF$buf0] _887_ d_lut_NOR2X1
A_2153_ [\u_mem_serial.active_we_bF$buf2\ \u_cpu.bufreg2.dlo\_21_] _886_ d_lut_NAND2X1
A_2154_ [_886_ _1062__bF$buf2] _885_ d_lut_NOR2X1
A_2155_ [_885_ _887_ _1058__bF$buf2] _884_ d_lut_OAI21X1
A_2156_ [\u_cpu.bufreg.data\_21_ \u_cpu.ctrl.o_ibus_adr\_21_ _1052__bF$buf3] _883_ d_lut_MUX2X1
A_2157_ [_1058__bF$buf1 _883_ _884_] _882_ d_lut_OAI21X1