* XSpice netlist created from SPICE and liberty sources by spi2xspice.py
*SPICE netlist created from verilog structural netlist module my_mcu_top by vlog2Spice (qflow)
** Start of included library /usr/local/share/qflow/tech/etri050/etri050_stdcells.sp
* NGSPICE file created from khu_etri050_stdcells.ext - technology: scmos
** End of included library /usr/local/share/qflow/tech/etri050/etri050_stdcells.sp
.subckt my_mcu_top a_vdd a_gnd a_i_clk_fast a_i_clk_sys_ext a_i_rst_n a_o_rf_sync a_o_rf_sck a_o_rf_mosi a_i_rf_miso a_o_mem_sync a_o_mem_sck a_o_mem_mosi a_i_mem_miso
ABUFX2_insert87 [mem_ibus_ack] mem_ibus_ack_bF$buf0 d_lut_BUFX2
ABUFX2_insert86 [mem_ibus_ack] mem_ibus_ack_bF$buf1 d_lut_BUFX2
ABUFX2_insert85 [mem_ibus_ack] mem_ibus_ack_bF$buf2 d_lut_BUFX2
ABUFX2_insert84 [mem_ibus_ack] mem_ibus_ack_bF$buf3 d_lut_BUFX2
ABUFX2_insert83 [mem_ibus_ack] mem_ibus_ack_bF$buf4 d_lut_BUFX2
ABUFX2_insert82 [mem_ibus_ack] mem_ibus_ack_bF$buf5 d_lut_BUFX2
ABUFX2_insert81 [mem_ibus_ack] mem_ibus_ack_bF$buf6 d_lut_BUFX2
ABUFX2_insert80 [mem_ibus_ack] mem_ibus_ack_bF$buf7 d_lut_BUFX2
ABUFX2_insert79 [_947_] _947__bF$buf0 d_lut_BUFX2
ABUFX2_insert78 [_947_] _947__bF$buf1 d_lut_BUFX2
ABUFX2_insert77 [_947_] _947__bF$buf2 d_lut_BUFX2
ABUFX2_insert76 [_947_] _947__bF$buf3 d_lut_BUFX2
ABUFX2_insert75 [_947_] _947__bF$buf4 d_lut_BUFX2
ABUFX2_insert74 [_383_] _383__bF$buf0 d_lut_BUFX2
ABUFX2_insert73 [_383_] _383__bF$buf1 d_lut_BUFX2
ABUFX2_insert72 [_383_] _383__bF$buf2 d_lut_BUFX2
ABUFX2_insert71 [_383_] _383__bF$buf3 d_lut_BUFX2
ABUFX2_insert70 [_383_] _383__bF$buf4 d_lut_BUFX2
ABUFX2_insert69 [_413_] _413__bF$buf0 d_lut_BUFX2
ABUFX2_insert68 [_413_] _413__bF$buf1 d_lut_BUFX2
ABUFX2_insert67 [_413_] _413__bF$buf2 d_lut_BUFX2
ABUFX2_insert66 [_413_] _413__bF$buf3 d_lut_BUFX2
ABUFX2_insert65 [_413_] _413__bF$buf4 d_lut_BUFX2
ABUFX2_insert64 [_551_] _551__bF$buf0 d_lut_BUFX2
ABUFX2_insert63 [_551_] _551__bF$buf1 d_lut_BUFX2
ABUFX2_insert62 [_551_] _551__bF$buf2 d_lut_BUFX2
ABUFX2_insert61 [_551_] _551__bF$buf3 d_lut_BUFX2
ABUFX2_insert60 [_551_] _551__bF$buf4 d_lut_BUFX2
ABUFX2_insert59 [_551_] _551__bF$buf5 d_lut_BUFX2
ABUFX2_insert58 [_704_] _704__bF$buf0 d_lut_BUFX2
ABUFX2_insert57 [_704_] _704__bF$buf1 d_lut_BUFX2
ABUFX2_insert56 [_704_] _704__bF$buf2 d_lut_BUFX2
ABUFX2_insert55 [_704_] _704__bF$buf3 d_lut_BUFX2
ABUFX2_insert54 [\u_rf_if.stream_active\] \u_rf_if.stream_active_bF$buf0\ d_lut_BUFX2
ABUFX2_insert53 [\u_rf_if.stream_active\] \u_rf_if.stream_active_bF$buf1\ d_lut_BUFX2
ABUFX2_insert52 [\u_rf_if.stream_active\] \u_rf_if.stream_active_bF$buf2\ d_lut_BUFX2
ABUFX2_insert51 [\u_rf_if.stream_active\] \u_rf_if.stream_active_bF$buf3\ d_lut_BUFX2
ACLKBUF1_insert50 [i_clk_fast] i_clk_fast_bF$buf0 d_lut_CLKBUF1
ACLKBUF1_insert49 [i_clk_fast] i_clk_fast_bF$buf1 d_lut_CLKBUF1
ACLKBUF1_insert48 [i_clk_fast] i_clk_fast_bF$buf2 d_lut_CLKBUF1
ACLKBUF1_insert47 [i_clk_fast] i_clk_fast_bF$buf3 d_lut_CLKBUF1
ACLKBUF1_insert46 [i_clk_fast] i_clk_fast_bF$buf4 d_lut_CLKBUF1
ACLKBUF1_insert45 [i_clk_fast] i_clk_fast_bF$buf5 d_lut_CLKBUF1
ACLKBUF1_insert44 [i_clk_fast] i_clk_fast_bF$buf6 d_lut_CLKBUF1
ACLKBUF1_insert43 [i_clk_fast] i_clk_fast_bF$buf7 d_lut_CLKBUF1
ABUFX2_insert42 [_440_] _440__bF$buf0 d_lut_BUFX2
ABUFX2_insert41 [_440_] _440__bF$buf1 d_lut_BUFX2
ABUFX2_insert40 [_440_] _440__bF$buf2 d_lut_BUFX2
ABUFX2_insert39 [_440_] _440__bF$buf3 d_lut_BUFX2
ABUFX2_insert38 [_440_] _440__bF$buf4 d_lut_BUFX2
ABUFX2_insert37 [_440_] _440__bF$buf5 d_lut_BUFX2
ACLKBUF1_insert36 [i_clk_sys_ext] i_clk_sys_ext_bF$buf0 d_lut_CLKBUF1
ACLKBUF1_insert35 [i_clk_sys_ext] i_clk_sys_ext_bF$buf1 d_lut_CLKBUF1
ACLKBUF1_insert34 [i_clk_sys_ext] i_clk_sys_ext_bF$buf2 d_lut_CLKBUF1
ACLKBUF1_insert33 [i_clk_sys_ext] i_clk_sys_ext_bF$buf3 d_lut_CLKBUF1
ACLKBUF1_insert32 [i_clk_sys_ext] i_clk_sys_ext_bF$buf4 d_lut_CLKBUF1
ACLKBUF1_insert31 [i_clk_sys_ext] i_clk_sys_ext_bF$buf5 d_lut_CLKBUF1
ACLKBUF1_insert30 [i_clk_sys_ext] i_clk_sys_ext_bF$buf6 d_lut_CLKBUF1
ACLKBUF1_insert29 [i_clk_sys_ext] i_clk_sys_ext_bF$buf7 d_lut_CLKBUF1
ACLKBUF1_insert28 [i_clk_sys_ext] i_clk_sys_ext_bF$buf8 d_lut_CLKBUF1
ACLKBUF1_insert27 [i_clk_sys_ext] i_clk_sys_ext_bF$buf9 d_lut_CLKBUF1
ACLKBUF1_insert26 [i_clk_sys_ext] i_clk_sys_ext_bF$buf10 d_lut_CLKBUF1
ACLKBUF1_insert25 [i_clk_sys_ext] i_clk_sys_ext_bF$buf11 d_lut_CLKBUF1
ACLKBUF1_insert24 [i_clk_sys_ext] i_clk_sys_ext_bF$buf12 d_lut_CLKBUF1
ACLKBUF1_insert23 [i_clk_sys_ext] i_clk_sys_ext_bF$buf13 d_lut_CLKBUF1
ABUFX2_insert22 [_505_] _505__bF$buf0 d_lut_BUFX2
ABUFX2_insert21 [_505_] _505__bF$buf1 d_lut_BUFX2
ABUFX2_insert20 [_505_] _505__bF$buf2 d_lut_BUFX2
ABUFX2_insert19 [_505_] _505__bF$buf3 d_lut_BUFX2
ABUFX2_insert18 [_505_] _505__bF$buf4 d_lut_BUFX2
ABUFX2_insert17 [i_rst_n] i_rst_n_bF$buf0 d_lut_BUFX2
ABUFX2_insert16 [i_rst_n] i_rst_n_bF$buf1 d_lut_BUFX2
ABUFX2_insert15 [i_rst_n] i_rst_n_bF$buf2 d_lut_BUFX2
ABUFX2_insert14 [i_rst_n] i_rst_n_bF$buf3 d_lut_BUFX2
ABUFX2_insert13 [_552_] _552__bF$buf0 d_lut_BUFX2
ABUFX2_insert12 [_552_] _552__bF$buf1 d_lut_BUFX2
ABUFX2_insert11 [_552_] _552__bF$buf2 d_lut_BUFX2
ABUFX2_insert10 [_552_] _552__bF$buf3 d_lut_BUFX2
ABUFX2_insert9 [_552_] _552__bF$buf4 d_lut_BUFX2
ABUFX2_insert8 [ren] ren_bF$buf0 d_lut_BUFX2
ABUFX2_insert7 [ren] ren_bF$buf1 d_lut_BUFX2
ABUFX2_insert6 [ren] ren_bF$buf2 d_lut_BUFX2
ABUFX2_insert5 [ren] ren_bF$buf3 d_lut_BUFX2
ABUFX2_insert4 [_990_] _990__bF$buf0 d_lut_BUFX2
ABUFX2_insert3 [_990_] _990__bF$buf1 d_lut_BUFX2
ABUFX2_insert2 [_990_] _990__bF$buf2 d_lut_BUFX2
ABUFX2_insert1 [_990_] _990__bF$buf3 d_lut_BUFX2
ABUFX2_insert0 [_990_] _990__bF$buf4 d_lut_BUFX2
A_1155_ [_1124_] o_rf_sync d_lut_BUFX2
A_1156_ [_1123_] o_rf_sck d_lut_BUFX2
A_1157_ [_1122_] o_rf_mosi d_lut_BUFX2
A_1158_ [_1121_] o_mem_sync d_lut_BUFX2
A_1159_ [_1120_] o_mem_sck d_lut_BUFX2
A_1160_ [_0_] o_mem_mosi d_lut_BUFX2
A_1161_ [_542_ _553_ _551__bF$buf5] _541_ d_lut_OAI21X1
A_1162_ [_543_ _563_ _541_] _853_ d_lut_OAI21X1
A_1163_ [\u_mem_serial.shift_reg\_11_ _551__bF$buf4] _540_ d_lut_NAND2X1
A_1164_ [\u_mem_serial.shift_reg\_12_ _552__bF$buf4] _539_ d_lut_NAND2X1
A_1165_ [_552__bF$buf3 _540_ _539_] _852_ d_lut_OAI21X1
A_1166_ [\u_mem_serial.shift_reg\_7_ _551__bF$buf3] _538_ d_lut_NAND2X1
A_1167_ [\u_mem_serial.shift_reg\_8_ _552__bF$buf2] _537_ d_lut_NAND2X1
A_1168_ [_552__bF$buf1 _538_ _537_] _851_ d_lut_OAI21X1
A_1169_ [\u_mem_serial.shift_reg\_18_] _536_ d_lut_INVX1
A_1170_ [\u_mem_serial.shift_reg\_17_] _535_ d_lut_INVX1
A_1171_ [_535_ _551__bF$buf2] _534_ d_lut_NAND2X1
A_1172_ [\u_cpu.bufreg.data\_3_] _533_ d_lut_INVX1
A_1173_ [\u_cpu.ctrl.o_ibus_adr\_3_] _532_ d_lut_INVX1
A_1174_ [_533_ _532_ _567_] _531_ d_lut_MUX2X1
A_1175_ [_551__bF$buf1 _531_ _534_] _530_ d_lut_OAI21X1
A_1176_ [_536_ _530_ _552__bF$buf0] _850_ d_lut_MUX2X1
A_1177_ [\u_rf_if.wen0_r\] _529_ d_lut_INVX1
A_1178_ [\u_rf_if.rtrig1\] _528_ d_lut_INVX1
A_1179_ [_529_ _528_] _527_ d_lut_NOR2X1
A_1180_ [ren_bF$buf3 _527_ i_rst_n_bF$buf3] _526_ d_lut_OAI21X1
A_1181_ [\u_rf_if.tx_state\_1_ \u_rf_if.tx_state\_0_] _525_ d_lut_NOR2X1
A_1182_ [_525_] _524_ d_lut_INVX2
A_1183_ [\u_rf_if.tx_state\_2_ _524_] _523_ d_lut_NOR2X1
A_1184_ [_523_] _522_ d_lut_INVX2
A_1185_ [\u_rf_if.tx_state\_3_ \u_rf_if.tx_state\_4_] _521_ d_lut_NOR2X1
A_1186_ [_521_] _520_ d_lut_INVX1
A_1187_ [_520_ _522_ \u_rf_if.launch_pending\] _519_ d_lut_OAI21X1
A_1188_ [_526_ _519_] _849_ d_lut_NOR2X1
A_1189_ [mem_ibus_ack_bF$buf7] _518_ d_lut_INVX4
A_1190_ [current_stream_rs2_hint _518_] _517_ d_lut_NAND2X1
A_1191_ [\u_mem_serial.shift_reg\_4_] _516_ d_lut_INVX1
A_1192_ [\u_mem_serial.shift_reg\_6_] _515_ d_lut_INVX1
A_1193_ [\u_mem_serial.shift_reg\_5_] _514_ d_lut_INVX1
A_1194_ [_518_ _514_] _513_ d_lut_NOR2X1
A_1195_ [\u_mem_serial.shift_reg\_3_] _512_ d_lut_INVX1
A_1196_ [\u_mem_serial.shift_reg\_1_ _512_] _511_ d_lut_NAND2X1
A_1197_ [\u_mem_serial.shift_reg\_2_] _510_ d_lut_INVX1
A_1198_ [\u_mem_serial.shift_reg\_0_ _510_] _509_ d_lut_NAND2X1
A_1199_ [_511_ _509_] _508_ d_lut_NOR2X1
A_1200_ [_508_ _513_] _507_ d_lut_AND2X2
A_1201_ [_516_ _515_ _507_] _506_ d_lut_OAI21X1
A_1202_ [_517_ _506_] \u_rf_if.i_stream_rs2_en\ d_lut_NAND2X1
A_1203_ [_552__bF$buf4] _505_ d_lut_INVX8
A_1204_ [_551__bF$buf0] _504_ d_lut_INVX2
A_1205_ [\u_mem_serial.shift_reg\_25_ _504_] _503_ d_lut_NOR2X1
A_1206_ [\u_mem_serial.shift_reg\_26_ _505__bF$buf4] _502_ d_lut_NOR2X1
A_1207_ [_505__bF$buf3 _503_ _502_] _847_ d_lut_AOI21X1
A_1208_ [\u_rf_if.rcnt\_0_] _501_ d_lut_INVX1
A_1209_ [\u_cpu.state.init_done\] _500_ d_lut_INVX1
A_1210_ [\u_cpu.bufreg.i_right_shift_op\] _499_ d_lut_INVX2
A_1211_ [\u_cpu.decode.co_mem_word\] _498_ d_lut_INVX1
A_1212_ [_499_ _498_] _497_ d_lut_NOR2X1
A_1213_ [\u_cpu.branch_op\ \u_cpu.decode.opcode\_0_] _496_ d_lut_NOR2X1
A_1214_ [\u_cpu.bne_or_bge\ \u_cpu.decode.co_mem_word\ _496_] _495_ d_lut_OAI21X1
A_1215_ [_497_ _495_ \u_cpu.decode.opcode\_2_] _494_ d_lut_OAI21X1
A_1216_ [_500_ _494_] _493_ d_lut_NAND2X1
A_1217_ [\u_cpu.bufreg2.i_bytecnt\_1_] _492_ d_lut_INVX1
A_1218_ [\u_cpu.bufreg2.i_bytecnt\_0_] _491_ d_lut_INVX1
A_1219_ [\u_cpu.state.cnt_r\_3_] _490_ d_lut_INVX1
A_1220_ [\u_cpu.state.o_cnt\_2_] _489_ d_lut_INVX1
A_1221_ [_490_ _489_] _488_ d_lut_NOR2X1
A_1222_ [_488_] _487_ d_lut_INVX1
A_1223_ [_491_ _487_] _486_ d_lut_NOR2X1
A_1224_ [_486_] _485_ d_lut_INVX1
A_1225_ [_492_ _485_] _484_ d_lut_NOR2X1
A_1226_ [_484_] _483_ d_lut_INVX1
A_1227_ [_493_ _483_] _482_ d_lut_NOR2X1
A_1228_ [_482_] _481_ d_lut_INVX1
A_1229_ [\u_cpu.state.cnt_r\_2_] _480_ d_lut_INVX1
A_1230_ [\u_cpu.state.cnt_r\_0_ \u_cpu.state.cnt_r\_1_] _479_ d_lut_OR2X2
A_1231_ [\u_cpu.state.cnt_r\_3_ _479_] _478_ d_lut_NOR2X1
A_1232_ [_480_ _478_] _477_ d_lut_NAND2X1
A_1233_ [_477_] _476_ d_lut_INVX2
A_1234_ [\u_cpu.bufreg.i_right_shift_op\ _476_] _475_ d_lut_NAND2X1
A_1235_ [_500_ _475_ _481_] _474_ d_lut_OAI21X1
A_1236_ [\u_cpu.branch_op\ _482_] _473_ d_lut_NAND2X1
A_1237_ [\u_cpu.decode.opcode\_2_] _472_ d_lut_INVX2
A_1238_ [\u_cpu.decode.co_mem_word\ _472_] _471_ d_lut_NOR2X1
A_1239_ [\u_cpu.bufreg2.dhi\_6_] _470_ d_lut_INVX1
A_1240_ [_471_] _469_ d_lut_INVX2
A_1241_ [_493_] _468_ d_lut_INVX1
A_1242_ [_499_ _483_ _468_] _467_ d_lut_OAI21X1
A_1243_ [_467_] _466_ d_lut_INVX1
A_1244_ [_469_ _466_] _465_ d_lut_NOR2X1
A_1245_ [\u_cpu.bufreg.i_shamt\_2_] _464_ d_lut_INVX1
A_1246_ [\u_cpu.bufreg.i_shamt\_0_ \u_cpu.bufreg.i_shamt\_1_] _463_ d_lut_NOR2X1
A_1247_ [_464_ _463_] _462_ d_lut_NAND2X1
A_1248_ [\u_cpu.bufreg2.dhi\_3_ _462_] _461_ d_lut_NOR2X1
A_1249_ [_461_] _460_ d_lut_INVX1
A_1250_ [\u_cpu.bufreg2.dhi\_4_ _460_] _459_ d_lut_NOR2X1
A_1251_ [\u_cpu.bufreg2.dhi\_5_ _459_] _458_ d_lut_NAND2X1
A_1252_ [\u_cpu.bufreg2.dhi\_5_] _457_ d_lut_INVX1
A_1253_ [\u_cpu.bufreg2.dhi\_4_ _460_ _457_] _456_ d_lut_OAI21X1
A_1254_ [_458_ _456_ _465_] _455_ d_lut_NAND3X1
A_1255_ [_470_ _465_ _455_] _454_ d_lut_OAI21X1
A_1256_ [_499_ _454_ _471_] _453_ d_lut_OAI21X1
A_1257_ [\u_cpu.decode.opcode\_0_ _472_] _452_ d_lut_NOR2X1
A_1258_ [_452_] _451_ d_lut_INVX1
A_1259_ [\u_cpu.decode.co_mem_word\ _499_] _450_ d_lut_NAND2X1
A_1260_ [_450_ _451_] _449_ d_lut_NOR2X1
A_1261_ [_449_ _482_] _448_ d_lut_NAND2X1
A_1262_ [_473_ _448_ _453_] _447_ d_lut_NAND3X1
A_1263_ [_474_ _447_] _446_ d_lut_NAND2X1
A_1264_ [_446_] _445_ d_lut_INVX1
A_1265_ [mem_ibus_ack_bF$buf6 _445_] _444_ d_lut_NOR2X1
A_1266_ [_444_] _443_ d_lut_INVX1
A_1267_ [_501_ _443_] \u_rf_if.rtrig0\ d_lut_NOR2X1
A_1268_ [_520_ _522_] _442_ d_lut_NOR2X1
A_1269_ [\u_rf_if.req_seen\ _442_] _441_ d_lut_NOR2X1
A_1270_ [_526_ _441_] _845_ d_lut_NOR2X1
A_1271_ [_476_ _468_] _440_ d_lut_NOR2X1
A_1272_ [rf_wreg0_to_if_1_] _439_ d_lut_INVX1
A_1273_ [\u_cpu.branch_op\] _438_ d_lut_INVX2
A_1274_ [\u_cpu.decode.opcode\_0_] _437_ d_lut_INVX2
A_1275_ [_438_ _437_] _436_ d_lut_NOR2X1
A_1276_ [\u_cpu.decode.opcode\_0_ \u_cpu.bufreg2.i_op_b_sel\ _472_] _435_ d_lut_OAI21X1
A_1277_ [_435_ _436_] _434_ d_lut_NOR2X1
A_1278_ [rf_wreg0_to_if_3_] _433_ d_lut_INVX1
A_1279_ [rf_wreg0_to_if_2_] _432_ d_lut_INVX1
A_1280_ [_433_ _432_] _431_ d_lut_NAND2X1
A_1281_ [rf_wreg0_to_if_0_] _430_ d_lut_INVX1
A_1282_ [\u_cpu.immdec.gen_immdec_w_eq_1.imm11_7\_4_] _429_ d_lut_INVX1
A_1283_ [_430_ _429_] _428_ d_lut_NAND2X1
A_1284_ [_431_ _428_] _427_ d_lut_NOR2X1
A_1285_ [_439_ _427_ _434_] _426_ d_lut_AOI21X1
A_1286_ [_426_ _440__bF$buf5] _425_ d_lut_NAND2X1
A_1287_ [_425_ _529_ \u_rf_if.rtrig0\] _844_ d_lut_MUX2X1
A_1288_ [\u_cpu.decode.opcode\_2_ _438_] _424_ d_lut_NAND2X1
A_1289_ [_437_ _424_] _423_ d_lut_NOR2X1
A_1290_ [_423_] _422_ d_lut_INVX1
A_1291_ [_491_ _492_] _421_ d_lut_NAND2X1
A_1292_ [\u_cpu.state.o_cnt\_2_ _421_] _420_ d_lut_NOR2X1
A_1293_ [\u_cpu.state.cnt_r\_0_ _420_] _419_ d_lut_NAND2X1
A_1294_ [\u_cpu.bufreg.data\_0_] _418_ d_lut_INVX1
A_1295_ [_438_ \u_cpu.decode.opcode\_2_ _493_] _417_ d_lut_OAI21X1
A_1296_ [_477_ _417_] _416_ d_lut_NAND2X1
A_1297_ [_500_ _469_] _415_ d_lut_NOR2X1
A_1298_ [\u_cpu.bufreg.i_right_shift_op\ _454_ _415_] _414_ d_lut_OAI21X1
A_1299_ [_416_ _414_] _413_ d_lut_NAND2X1
A_1300_ [_413__bF$buf4] _412_ d_lut_INVX1
A_1301_ [_418_ _412_] _411_ d_lut_NOR2X1
A_1302_ [\u_cpu.decode.opcode\_1_] _410_ d_lut_INVX1
A_1303_ [_472_ _410_] _409_ d_lut_NAND2X1
A_1304_ [\u_cpu.decode.opcode\_0_ _409_] _408_ d_lut_NOR2X1
A_1305_ [\u_cpu.bufreg2.i_op_b_sel\ _408_] _407_ d_lut_NAND2X1
A_1306_ [rf_read_reg1_to_if_0_ rf_wreg0_to_if_0_ _407_] _406_ d_lut_MUX2X1
A_1307_ [_438_ _472_] _405_ d_lut_NOR2X1
A_1308_ [_405_] _404_ d_lut_INVX1
A_1309_ [_499_ _404_ \u_cpu.immdec.gen_immdec_w_eq_1.imm31\] _403_ d_lut_OAI21X1
A_1310_ [_403_] _402_ d_lut_INVX1
A_1311_ [_402_ _484_] _401_ d_lut_NAND2X1
A_1312_ [_484_ _406_ _401_] _400_ d_lut_OAI21X1
A_1313_ [_491_ _489_ _492_] _399_ d_lut_OAI21X1
A_1314_ [_423_ _399_] _398_ d_lut_AND2X2
A_1315_ [_400_ _398_ _411_ _422_] _397_ d_lut_AOI22X1
A_1316_ [\u_cpu.ctrl.pc_plus_offset_cy_r_w\_0_] _396_ d_lut_INVX1
A_1317_ [\u_cpu.decode.opcode\_0_ \u_cpu.decode.opcode\_1_ _405_ \u_cpu.decode.co_ebreak\] _395_ d_lut_AOI22X1
A_1318_ [\u_cpu.branch_op\ \u_cpu.bufreg2.i_op_b_sel\ _395_] _394_ d_lut_OAI21X1
A_1319_ [_408_ _394_ \u_cpu.ctrl.pc\_0_] _393_ d_lut_OAI21X1
A_1320_ [_393_ _396_] _392_ d_lut_OR2X2
A_1321_ [_396_ _393_] _391_ d_lut_NAND2X1
A_1322_ [_391_ _392_] _390_ d_lut_NAND2X1
A_1323_ [_397_ _390_] _389_ d_lut_OR2X2
A_1324_ [_390_ _397_] _388_ d_lut_NAND2X1
A_1325_ [_419_ _388_ _389_] _387_ d_lut_NAND3X1
A_1326_ [\u_cpu.decode.opcode\_0_ _424_] _386_ d_lut_NOR2X1
A_1327_ [\u_cpu.bufreg.i_right_shift_op\ \u_cpu.bne_or_bge\] _385_ d_lut_NOR2X1
A_1328_ [_498_ _385_] _384_ d_lut_NAND2X1
A_1329_ [\u_rf_if.stream_active_bF$buf3\] _383_ d_lut_INVX8
A_1330_ [\u_rf_if.read_buf0\_0_] _382_ d_lut_INVX1
A_1331_ [_383__bF$buf4 _382_] _381_ d_lut_NOR2X1
A_1332_ [\u_cpu.alu.add_cy_r\_0_ _381_] _380_ d_lut_NAND2X1
A_1333_ [\u_cpu.alu.add_cy_r\_0_] _379_ d_lut_INVX1
A_1334_ [_383__bF$buf3 _382_ _379_] _378_ d_lut_OAI21X1
A_1335_ [_378_ _380_] _377_ d_lut_NAND2X1
A_1336_ [\u_cpu.bufreg2.i_op_b_sel\] _376_ d_lut_INVX1
A_1337_ [\u_cpu.bufreg.i_sh_signed\] _375_ d_lut_INVX1
A_1338_ [\u_cpu.bne_or_bge\ \u_cpu.decode.co_mem_word\] _374_ d_lut_NOR2X1
A_1339_ [_376_ _375_ _374_] _373_ d_lut_OAI21X1
A_1340_ [\u_cpu.branch_op\ _373_] _372_ d_lut_NOR2X1
A_1341_ [\u_rf_if.read_buf1\_0_ \u_rf_if.i_stream_rs2_en\ \u_rf_if.stream_active_bF$buf2\] _371_ d_lut_OAI21X1
A_1342_ [\u_rf_if.i_stream_rs2_en\] _370_ d_lut_INVX1
A_1343_ [\u_rf_if.rs2_stream_buf\_0_ _370_ \u_cpu.bufreg2.i_op_b_sel\] _369_ d_lut_OAI21X1
A_1344_ [_376_ _400_] _368_ d_lut_NAND2X1
A_1345_ [_371_ _369_ _368_] _367_ d_lut_OAI21X1
A_1346_ [_367_] _366_ d_lut_INVX1
A_1347_ [_372_ _366_] _365_ d_lut_NAND2X1
A_1348_ [\u_cpu.branch_op\ _373_ _367_] _364_ d_lut_OAI21X1
A_1349_ [_364_ _365_] _363_ d_lut_NAND2X1
A_1350_ [_363_ _377_] _362_ d_lut_OR2X2
A_1351_ [_377_ _363_] _361_ d_lut_NAND2X1
A_1352_ [_361_ _362_] _360_ d_lut_NAND2X1
A_1353_ [_497_] _359_ d_lut_INVX1
A_1354_ [_381_ _367_] _358_ d_lut_NAND2X1
A_1355_ [\u_cpu.bne_or_bge\] _357_ d_lut_INVX1
A_1356_ [_383__bF$buf2 _382_ _366_] _356_ d_lut_OAI21X1
A_1357_ [_356_ _358_] _355_ d_lut_AND2X2
A_1358_ [\u_cpu.bufreg.i_right_shift_op\ _357_ _355_] _354_ d_lut_NAND3X1
A_1359_ [_359_ _358_ _354_] _353_ d_lut_OAI21X1
A_1360_ [_450_ _419_] _352_ d_lut_NOR2X1
A_1361_ [\u_cpu.alu.cmp_r\ _352_ _353_] _351_ d_lut_AOI21X1
A_1362_ [_384_ _360_ _351_] _350_ d_lut_OAI21X1
A_1363_ [_350_ _411_] _349_ d_lut_OR2X2
A_1364_ [\u_cpu.state.cnt_r\_2_ _420_] _348_ d_lut_NAND2X1
A_1365_ [\u_cpu.ctrl.pc\_0_ \u_cpu.ctrl.pc_plus_4_cy_r_w\_0_] _347_ d_lut_AND2X2
A_1366_ [\u_cpu.ctrl.pc\_0_ \u_cpu.ctrl.pc_plus_4_cy_r_w\_0_] _346_ d_lut_NOR2X1
A_1367_ [_346_ _347_] _345_ d_lut_NOR2X1
A_1368_ [_345_] _344_ d_lut_INVX1
A_1369_ [_344_ _348_] _343_ d_lut_NOR2X1
A_1370_ [_420_ \u_cpu.state.cnt_r\_2_ _345_] _342_ d_lut_AOI21X1
A_1371_ [_342_ _343_] _341_ d_lut_NOR2X1
A_1372_ [_436_ _341_ _349_ _386_] _340_ d_lut_AOI22X1
A_1373_ [_422_ _387_ _340_] \u_cpu.o_wdata0\_0_ d_lut_OAI21X1
A_1374_ [\u_mem_serial.shift_reg\_5_ _551__bF$buf5 _505__bF$buf2] _339_ d_lut_NAND3X1
A_1375_ [_515_ _505__bF$buf1 _339_] _842_ d_lut_OAI21X1
A_1376_ [_527_] _338_ d_lut_INVX1
A_1377_ [ren_bF$buf2] _337_ d_lut_INVX2
A_1378_ [\u_rf_if.rtrig0\] _336_ d_lut_INVX2
A_1379_ [ren_bF$buf1 _433_] _335_ d_lut_NOR2X1
A_1380_ [ren_bF$buf0 raddr_7_ _336_ _335_] _334_ d_lut_AOI22X1
A_1381_ [_334_] _333_ d_lut_INVX1
A_1382_ [_333_ \u_rf_if.last_req_key\_7_] _332_ d_lut_OR2X2
A_1383_ [\u_rf_if.last_req_key\_7_ _333_] _331_ d_lut_NAND2X1
A_1384_ [raddr_3_] _330_ d_lut_INVX1
A_1385_ [ren_bF$buf3 _330_] _329_ d_lut_NAND2X1
A_1386_ [ren_bF$buf2 \u_rf_if.o_waddr\_3_ _329_] _328_ d_lut_OAI21X1
A_1387_ [_328_] _327_ d_lut_INVX1
A_1388_ [_327_ \u_rf_if.last_req_key\_3_] _326_ d_lut_AND2X2
A_1389_ [\u_rf_if.last_req_key\_3_ _327_] _325_ d_lut_NOR2X1
A_1390_ [_337_ raddr_1_] _324_ d_lut_OR2X2
A_1391_ [ren_bF$buf1 \u_rf_if.o_waddr\_1_ _324_] _323_ d_lut_OAI21X1
A_1392_ [\u_rf_if.last_req_key\_8_ _337_] _322_ d_lut_NAND2X1
A_1393_ [\u_rf_if.last_req_key\_8_] _321_ d_lut_INVX1
A_1394_ [ren_bF$buf0 _321_] _320_ d_lut_NAND2X1
A_1395_ [_322_ _320_] _319_ d_lut_AND2X2
A_1396_ [\u_rf_if.last_req_key\_1_ _323_ _319_] _318_ d_lut_OAI21X1
A_1397_ [\u_rf_if.last_req_key\_9_ _527_] _317_ d_lut_NAND2X1
A_1398_ [_527_ \u_rf_if.last_req_key\_9_] _316_ d_lut_OR2X2
A_1399_ [_317_ _316_ _318_] _315_ d_lut_AOI21X1
A_1400_ [\u_rf_if.last_req_key\_1_] _314_ d_lut_INVX1
A_1401_ [_323_] _313_ d_lut_INVX1
A_1402_ [_314_ _313_ \u_rf_if.req_seen\] _312_ d_lut_OAI21X1
A_1403_ [\u_rf_if.o_waddr\_2_] _311_ d_lut_INVX1
A_1404_ [_337_ _311_] _310_ d_lut_NAND2X1
A_1405_ [_337_ raddr_2_ _310_] _309_ d_lut_OAI21X1
A_1406_ [_309_ \u_rf_if.last_req_key\_2_] _308_ d_lut_OR2X2
A_1407_ [\u_rf_if.last_req_key\_2_ _309_] _307_ d_lut_NAND2X1
A_1408_ [_307_ _308_] _306_ d_lut_NAND2X1
A_1409_ [_306_ _312_] _305_ d_lut_NOR2X1
A_1410_ [_305_ _315_] _304_ d_lut_AND2X2
A_1411_ [_326_ _325_ _304_] _303_ d_lut_OAI21X1
A_1412_ [_332_ _331_ _303_] _302_ d_lut_AOI21X1
A_1413_ [ren_bF$buf3 _432_] _301_ d_lut_NOR2X1
A_1414_ [ren_bF$buf2 raddr_6_ _336_ _301_] _300_ d_lut_AOI22X1
A_1415_ [\u_rf_if.last_req_key\_6_ _300_] _299_ d_lut_NAND2X1
A_1416_ [_300_ \u_rf_if.last_req_key\_6_] _298_ d_lut_OR2X2
A_1417_ [_299_ _298_] _297_ d_lut_NAND2X1
A_1418_ [\u_rf_if.launch_pending\ _297_] _296_ d_lut_NOR2X1
A_1419_ [ren_bF$buf1 _430_] _295_ d_lut_NOR2X1
A_1420_ [ren_bF$buf0 raddr_4_ _336_ _295_] _294_ d_lut_AOI22X1
A_1421_ [_294_] _293_ d_lut_INVX1
A_1422_ [\u_rf_if.last_req_key\_4_ _293_] _292_ d_lut_NOR2X1
A_1423_ [_293_ \u_rf_if.last_req_key\_4_] _291_ d_lut_AND2X2
A_1424_ [_337_ raddr_0_] _290_ d_lut_OR2X2
A_1425_ [ren_bF$buf3 \u_rf_if.o_waddr\_0_ _290_] _289_ d_lut_OAI21X1
A_1426_ [_289_] _288_ d_lut_INVX1
A_1427_ [_288_ \u_rf_if.last_req_key\_0_] _287_ d_lut_AND2X2
A_1428_ [\u_rf_if.last_req_key\_0_ _288_] _286_ d_lut_NOR2X1
A_1429_ [_287_ _286_ _292_ _291_] _285_ d_lut_OAI22X1
A_1430_ [ren_bF$buf2 _439_] _284_ d_lut_NOR2X1
A_1431_ [ren_bF$buf1 raddr_5_ _336_ _284_] _283_ d_lut_AOI22X1
A_1432_ [_283_ \u_rf_if.last_req_key\_5_] _282_ d_lut_OR2X2
A_1433_ [\u_rf_if.last_req_key\_5_ _283_] _281_ d_lut_NAND2X1
A_1434_ [_281_ _282_] _280_ d_lut_NAND2X1
A_1435_ [_280_ _285_] _279_ d_lut_NOR2X1
A_1436_ [_279_ _296_] _278_ d_lut_AND2X2
A_1437_ [_337_ _338_ _278_ _302_] _277_ d_lut_AOI22X1
A_1438_ [_442_ _277_] _276_ d_lut_NAND2X1
A_1439_ [_276_] _704_ d_lut_INVX4
A_1440_ [\u_rf_if.last_req_key\_9_ _704__bF$buf3 i_rst_n_bF$buf2] _705_ d_lut_OAI21X1
A_1441_ [_338_ _704__bF$buf2 _705_] _841_ d_lut_AOI21X1
A_1442_ [\u_rf_if.tx_state\_0_] _722_ d_lut_INVX1
A_1443_ [\u_rf_if.tx_state\_2_ _520_] _723_ d_lut_NOR2X1
A_1444_ [\u_rf_if.tx_state\_1_ _722_ _723_] _724_ d_lut_NAND3X1
A_1445_ [_724_ i_rf_miso] _797_ d_lut_OR2X2
A_1446_ [\u_rf_if.shift_rx\_0_] _798_ d_lut_INVX1
A_1447_ [i_rst_n_bF$buf1] _799_ d_lut_INVX1
A_1448_ [_724_ _798_ _799_] _800_ d_lut_AOI21X1
A_1449_ [_797_ _800_] _840_ d_lut_AND2X2
A_1450_ [\u_rf_if.tx_state\_3_ _522_ \u_rf_if.tx_state\_4_] _801_ d_lut_OAI21X1
A_1451_ [_799_ _801_] _839_ d_lut_NOR2X1
A_1452_ [\u_rf_if.tx_state\_1_] _802_ d_lut_INVX1
A_1453_ [_802_ _723_] _803_ d_lut_NAND2X1
A_1454_ [_803_ _442_ _1124_] _804_ d_lut_OAI21X1
A_1455_ [_276_ _804_ _799_] _838_ d_lut_AOI21X1
A_1456_ [_1124_] _805_ d_lut_INVX1
A_1457_ [i_clk_fast_bF$buf7 _805_] _1123_ d_lut_NOR2X1
A_1458_ [_524_ _338_] _806_ d_lut_NOR2X1
A_1459_ [_802_ _722_] _807_ d_lut_NOR2X1
A_1460_ [ren_bF$buf0 _807_] _808_ d_lut_NAND2X1
A_1461_ [_525_ _807_] _809_ d_lut_NOR2X1
A_1462_ [_809_] _810_ d_lut_INVX1
A_1463_ [_300_] _811_ d_lut_INVX1
A_1464_ [_811_ _333_ \u_rf_if.tx_state\_0_] _836_ d_lut_MUX2X1
A_1465_ [_810_ _836_ _808_] _837_ d_lut_OAI21X1
A_1466_ [\u_rf_if.tx_state\_2_ _524_ \u_rf_if.tx_state\_3_] _843_ d_lut_OAI21X1
A_1467_ [\u_rf_if.tx_state\_2_ _524_ _843_] _846_ d_lut_AOI21X1
A_1468_ [_806_ _837_ _846_] _848_ d_lut_OAI21X1
A_1469_ [\u_rf_if.tx_state\_1_ \u_rf_if.tx_state\_0_ \u_rf_if.tx_state\_2_] _857_ d_lut_OAI21X1
A_1470_ [_857_ _522_] _858_ d_lut_NAND2X1
A_1471_ [\u_rf_if.wdata0_next\_0_] _859_ d_lut_INVX1
A_1472_ [_384_ _451_] _860_ d_lut_NOR2X1
A_1473_ [_860_ _372_] _861_ d_lut_AND2X2
A_1474_ [_861_] _862_ d_lut_INVX1
A_1475_ [\u_rf_if.o_waddr\_0_ \u_rf_if.o_waddr\_3_] _863_ d_lut_NOR2X1
A_1476_ [\u_rf_if.o_waddr\_2_ \u_rf_if.o_waddr\_1_] _864_ d_lut_NOR2X1
A_1477_ [_863_ _864_] _865_ d_lut_AND2X2
A_1478_ [\u_rf_if.rcnt\_2_ \u_rf_if.wdata0_next_phase\ _865_] _866_ d_lut_MUX2X1
A_1479_ [_866_ _862_] _867_ d_lut_NOR2X1
A_1480_ [_867_] _868_ d_lut_INVX1
A_1481_ [_868_ \u_rf_if.wdata0_r\_0_ _722_] _869_ d_lut_AOI21X1
A_1482_ [_859_ _868_ _869_] _870_ d_lut_OAI21X1
A_1483_ [_809_ _870_] _871_ d_lut_NAND2X1
A_1484_ [_871_ \u_rf_if.rtrig0\] _872_ d_lut_NOR2X1
A_1485_ [\u_cpu.o_wdata0\_0_ _867_] _873_ d_lut_AND2X2
A_1486_ [_859_ _867_ _722_] _874_ d_lut_OAI21X1
A_1487_ [_874_ _873_ _872_] _875_ d_lut_OAI21X1
A_1488_ [_313_ _525_ _288_ _807_] _876_ d_lut_AOI22X1
A_1489_ [_876_ _875_] _877_ d_lut_NAND2X1
A_1490_ [_522_ \u_rf_if.tx_state\_3_] _878_ d_lut_OR2X2
A_1491_ [_843_ _878_] _879_ d_lut_NAND2X1
A_1492_ [_283_ _524_] _880_ d_lut_OR2X2
A_1493_ [_309_ \u_rf_if.tx_state\_0_] _881_ d_lut_AND2X2
A_1494_ [\u_rf_if.tx_state\_0_ _327_ _809_] _882_ d_lut_OAI21X1
A_1495_ [_881_ _882_ _858_] _883_ d_lut_OAI21X1
A_1496_ [_293_ _807_ _883_] _884_ d_lut_AOI21X1
A_1497_ [_884_ _880_ _879_] _885_ d_lut_AOI21X1
A_1498_ [_858_ _877_ _885_] _886_ d_lut_OAI21X1
A_1499_ [_886_ _848_ _805_] _1122_ d_lut_AOI21X1
A_1500_ [\u_mem_serial.shift_reg\_26_ _504_] _887_ d_lut_NOR2X1
A_1501_ [\u_mem_serial.shift_reg\_27_ _505__bF$buf0] _888_ d_lut_NOR2X1
A_1502_ [_505__bF$buf4 _887_ _888_] _835_ d_lut_AOI21X1
A_1503_ [\u_rf_if.write_wait\_0_ \u_rf_if.write_wait\_1_] _889_ d_lut_NAND2X1
A_1504_ [_889_ _446_] _834_ d_lut_NAND2X1
A_1505_ [\u_rf_if.o_waddr\_0_] _890_ d_lut_INVX1
A_1506_ [\u_rf_if.wen0_r\ \u_rf_if.rtrig0\] _891_ d_lut_NAND2X1
A_1507_ [_890_ _891_] _892_ d_lut_NOR2X1
A_1508_ [\u_rf_if.o_waddr\_1_ _892_] _893_ d_lut_NAND2X1
A_1509_ [_311_ _893_] _894_ d_lut_NOR2X1
A_1510_ [\u_rf_if.o_waddr\_3_ _894_] _895_ d_lut_NOR2X1
A_1511_ [_894_ \u_rf_if.o_waddr\_3_] _896_ d_lut_AND2X2
A_1512_ [_895_ _896_] _897_ d_lut_NOR2X1
A_1513_ [_897_ _446_] _833_ d_lut_AND2X2
A_1514_ [_527_ _865_ _336_] _898_ d_lut_NAND3X1
A_1515_ [\u_rf_if.rcnt\_2_] _899_ d_lut_INVX1
A_1516_ [_899_ _862_] _900_ d_lut_NOR2X1
A_1517_ [\u_rf_if.wdata0_next_phase\ _900_ _898_] _901_ d_lut_MUX2X1
A_1518_ [_445_ _901_] _832_ d_lut_NOR2X1
A_1519_ [\u_rf_if.rcnt\_0_ \u_rf_if.rcnt\_1_] _902_ d_lut_NOR2X1
A_1520_ [\u_rf_if.rcnt\_1_] _903_ d_lut_INVX1
A_1521_ [_501_ _903_] _904_ d_lut_NOR2X1
A_1522_ [_904_ _902_] _905_ d_lut_OR2X2
A_1523_ [mem_ibus_ack_bF$buf5 _905_ _446_] _831_ d_lut_OAI21X1
A_1524_ [rf_read_reg1_to_if_3_] _906_ d_lut_INVX1
A_1525_ [mem_ibus_ack_bF$buf4 \u_rf_if.rreg1_latched\_3_] _907_ d_lut_NOR2X1
A_1526_ [mem_ibus_ack_bF$buf3 _906_ _907_] _830_ d_lut_AOI21X1
A_1527_ [\u_rf_if.prefetch_active\] _908_ d_lut_INVX2
A_1528_ [\u_rf_if.issue_idx\_4_] _909_ d_lut_INVX1
A_1529_ [\u_rf_if.issue_idx\_5_] _910_ d_lut_INVX1
A_1530_ [\u_rf_if.issue_idx\_1_ \u_rf_if.issue_idx\_0_] _911_ d_lut_NOR2X1
A_1531_ [\u_rf_if.issue_idx\_3_ \u_rf_if.issue_idx\_2_] _912_ d_lut_NOR2X1
A_1532_ [_911_ _912_] _913_ d_lut_NAND2X1
A_1533_ [_913_ _370_] _914_ d_lut_NOR2X1
A_1534_ [_909_ _914_ _910_] _915_ d_lut_OAI21X1
A_1535_ [\u_rf_if.stream_cnt\_4_] _916_ d_lut_INVX1
A_1536_ [\u_rf_if.stream_cnt\_3_] _917_ d_lut_INVX1
A_1537_ [\u_rf_if.stream_cnt\_2_] _918_ d_lut_INVX1
A_1538_ [\u_rf_if.stream_cnt\_1_] _919_ d_lut_INVX1
A_1539_ [_918_ _919_] _920_ d_lut_NOR2X1
A_1540_ [_920_] _921_ d_lut_INVX1
A_1541_ [_917_ _921_] _922_ d_lut_NOR2X1
A_1542_ [_922_] _923_ d_lut_INVX1
A_1543_ [\u_rf_if.stream_cnt\_0_ _383__bF$buf1] _924_ d_lut_NOR2X1
A_1544_ [_924_] _925_ d_lut_INVX1
A_1545_ [_925_ _370_] _926_ d_lut_NOR2X1
A_1546_ [_916_ _923_ _926_] _927_ d_lut_OAI21X1
A_1547_ [_908_ _915_ _927_] _829_ d_lut_OAI21X1
A_1548_ [\u_rf_if.stream_active_bF$buf1\ \u_rf_if.ready_pulse\] _928_ d_lut_NOR2X1
A_1549_ [_916_ _923_] _929_ d_lut_NOR2X1
A_1550_ [_383__bF$buf0 _929_ _925_] _930_ d_lut_OAI21X1
A_1551_ [_928_ _930_ \u_rf_if.stream_cnt\_4_] _931_ d_lut_OAI21X1
A_1552_ [\u_rf_if.stream_cnt\_0_] _932_ d_lut_INVX1
A_1553_ [_383__bF$buf4 _932_] _933_ d_lut_NOR2X1
A_1554_ [_933_ _922_] _934_ d_lut_NAND2X1
A_1555_ [\u_rf_if.stream_cnt\_4_ _934_ _931_] _828_ d_lut_OAI21X1
A_1556_ [_294_ _283_] _935_ d_lut_NAND2X1
A_1557_ [_333_ _811_] _936_ d_lut_NOR2X1
A_1558_ [_936_] _937_ d_lut_INVX1
A_1559_ [_935_ _937_ \u_rf_if.shift_rx\_0_] _938_ d_lut_OAI21X1
A_1560_ [\u_rf_if.issue_idx\_4_ _913_] _939_ d_lut_NOR2X1
A_1561_ [_939_ _910_ _908_] _940_ d_lut_AOI21X1
A_1562_ [_940_] _941_ d_lut_INVX1
A_1563_ [\u_rf_if.issue_idx\_0_] _942_ d_lut_INVX1
A_1564_ [\u_rf_if.issue_idx\_1_] _943_ d_lut_INVX1
A_1565_ [\u_rf_if.issue_idx\_4_ _943_ _912_] _944_ d_lut_NAND3X1
A_1566_ [_942_ _944_] _945_ d_lut_NOR2X1
A_1567_ [\u_rf_if.i_stream_rs2_en\ _945_ _941_] _946_ d_lut_AOI21X1
A_1568_ [_383__bF$buf3 _946_] _947_ d_lut_NAND2X1
A_1569_ [\u_rf_if.stream_active_bF$buf0\ _946_] _948_ d_lut_NOR2X1
A_1570_ [\u_rf_if.stream_active_bF$buf3\ \u_rf_if.read_buf0\_31_ _948_ \u_rf_if.read_buf0\_30_] _949_ d_lut_AOI22X1
A_1571_ [_947__bF$buf4 _938_ _949_] _827_ d_lut_OAI21X1
A_1572_ [\u_rf_if.read_buf0\_31_ _948_] _950_ d_lut_NAND2X1
A_1573_ [_935_ _937_ \u_rf_if.shift_rx\_1_] _951_ d_lut_OAI21X1
A_1574_ [_947__bF$buf3 _951_ _950_] _826_ d_lut_OAI21X1
A_1575_ [rf_read_reg0_to_if_3_] _952_ d_lut_INVX1
A_1576_ [mem_ibus_ack_bF$buf2 \u_rf_if.rreg0_latched\_3_] _953_ d_lut_NOR2X1
A_1577_ [mem_ibus_ack_bF$buf1 _952_ _953_] _825_ d_lut_AOI21X1
A_1578_ [_930_] _954_ d_lut_INVX1
A_1579_ [_945_ \u_rf_if.i_stream_rs2_en\] _955_ d_lut_NAND2X1
A_1580_ [_941_ _955_ _954_] _956_ d_lut_OAI21X1
A_1581_ [\u_rf_if.rs2_stream_buf\_1_ _956_] _957_ d_lut_NOR2X1
A_1582_ [\u_rf_if.i_stream_rs2_en\ _956_] _958_ d_lut_NAND2X1
A_1583_ [\u_rf_if.rs2_stream_buf\_1_ _958_] _959_ d_lut_NAND2X1
A_1584_ [_370_ _951_ _959_] _960_ d_lut_OAI21X1
A_1585_ [_383__bF$buf2 \u_rf_if.stream_cnt\_0_ _960_] _961_ d_lut_OAI21X1
A_1586_ [_957_ _961_] _824_ d_lut_NOR2X1
A_1587_ [\u_rf_if.ready_pulse\] _962_ d_lut_INVX1
A_1588_ [\u_rf_if.stream_active_bF$buf2\ _962_ _954_] _823_ d_lut_OAI21X1
A_1589_ [_915_ \u_rf_if.prefetch_active\] _822_ d_lut_AND2X2
A_1590_ [\u_rf_if.write_wait\_0_ \u_rf_if.write_wait\_1_] _963_ d_lut_NOR2X1
A_1591_ [\u_rf_if.pending_read\] _964_ d_lut_INVX1
A_1592_ [\u_rf_if.prefetch_active\ _964_] _965_ d_lut_NOR2X1
A_1593_ [_963_ _965_] _966_ d_lut_NAND2X1
A_1594_ [_966_] _967_ d_lut_INVX1
A_1595_ [_910_ _967_] _821_ d_lut_NOR2X1
A_1596_ [_964_ _518_ _967_] _820_ d_lut_AOI21X1
A_1597_ [_908_ _915_ _966_] _819_ d_lut_OAI21X1
A_1598_ [_927_] _968_ d_lut_INVX2
A_1599_ [_908_ _915_] _969_ d_lut_NOR2X1
A_1600_ [\u_rf_if.issue_idx\_4_ _910_ _914_] _970_ d_lut_NAND3X1
A_1601_ [\u_rf_if.rreg0_latched\_3_ _970_ _969_] _971_ d_lut_NAND3X1
A_1602_ [_829_] _972_ d_lut_INVX1
A_1603_ [_908_ _970_ _927_] _973_ d_lut_OAI21X1
A_1604_ [\u_rf_if.rreg1_latched\_3_ _973_ _972_ raddr_7_] _974_ d_lut_AOI22X1
A_1605_ [_968_ _971_ _974_] _818_ d_lut_OAI21X1
A_1606_ [i_rf_miso] _975_ d_lut_INVX1
A_1607_ [_723_ _807_] _976_ d_lut_AND2X2
A_1608_ [\u_rf_if.shift_rx\_1_ _976_ i_rst_n_bF$buf0] _977_ d_lut_OAI21X1
A_1609_ [_975_ _976_ _977_] _817_ d_lut_AOI21X1
A_1610_ [_928_ _924_] _978_ d_lut_NOR2X1
A_1611_ [_383__bF$buf1 _932_ _978_] _816_ d_lut_AOI21X1
A_1612_ [\u_rf_if.stream_cnt\_1_ _933_] _979_ d_lut_NOR2X1
A_1613_ [\u_rf_if.stream_cnt\_1_ _978_ _979_] _815_ d_lut_AOI21X1
A_1614_ [\u_rf_if.stream_cnt\_2_ _928_] _980_ d_lut_NAND2X1
A_1615_ [\u_rf_if.stream_cnt\_2_ \u_rf_if.stream_cnt\_0_] _981_ d_lut_NOR2X1
A_1616_ [_383__bF$buf0 _920_ _925_] _982_ d_lut_OAI21X1
A_1617_ [\u_rf_if.stream_cnt\_2_ \u_rf_if.stream_cnt\_1_ _982_] _983_ d_lut_OAI21X1
A_1618_ [_981_ _983_ _980_] _814_ d_lut_OAI21X1
A_1619_ [_921_ \u_rf_if.stream_active_bF$buf1\ _917_] _984_ d_lut_AOI21X1