* XSpice netlist created from SPICE and liberty sources by spi2xspice.py
*SPICE netlist created from verilog structural netlist module my_mcu_top by vlog2Spice (qflow)
** Start of included library /usr/local/share/qflow/tech/etri050/etri050_stdcells.sp
* NGSPICE file created from khu_etri050_stdcells.ext - technology: scmos
** End of included library /usr/local/share/qflow/tech/etri050/etri050_stdcells.sp
.subckt my_mcu_top a_vdd a_gnd a_i_clk_fast a_i_clk_sys_ext a_i_rst_n a_o_rf_sync a_o_rf_sck a_o_rf_mosi a_i_rf_miso a_o_mem_sync a_o_mem_sck a_o_mem_mosi a_i_mem_miso a_o_uart_tx a_i_uart_rx a_i_gpio_0_ a_i_gpio_1_ a_i_gpio_2_ a_i_gpio_3_ a_i_gpio_4_ a_i_gpio_5_ a_i_gpio_6_ a_i_gpio_7_ a_o_gpio_0_ a_o_gpio_1_ a_o_gpio_2_ a_o_gpio_3_ a_o_gpio_4_ a_o_gpio_5_ a_o_gpio_6_ a_o_gpio_7_ a_o_gpio_oe_0_ a_o_gpio_oe_1_ a_o_gpio_oe_2_ a_o_gpio_oe_3_ a_o_gpio_oe_4_ a_o_gpio_oe_5_ a_o_gpio_oe_6_ a_o_gpio_oe_7_
ACLKBUF1_insert246 [i_clk_sys_ext] i_clk_sys_ext_hier0_bF$buf0 d_lut_CLKBUF1
ACLKBUF1_insert245 [i_clk_sys_ext] i_clk_sys_ext_hier0_bF$buf1 d_lut_CLKBUF1
ACLKBUF1_insert244 [i_clk_sys_ext] i_clk_sys_ext_hier0_bF$buf2 d_lut_CLKBUF1
ACLKBUF1_insert243 [i_clk_sys_ext] i_clk_sys_ext_hier0_bF$buf3 d_lut_CLKBUF1
ACLKBUF1_insert242 [i_clk_sys_ext] i_clk_sys_ext_hier0_bF$buf4 d_lut_CLKBUF1
ACLKBUF1_insert241 [i_clk_sys_ext] i_clk_sys_ext_hier0_bF$buf5 d_lut_CLKBUF1
ABUFX2_insert240 [mem_ibus_ack] mem_ibus_ack_bF$buf0 d_lut_BUFX2
ABUFX2_insert239 [mem_ibus_ack] mem_ibus_ack_bF$buf1 d_lut_BUFX2
ABUFX2_insert238 [mem_ibus_ack] mem_ibus_ack_bF$buf2 d_lut_BUFX2
ABUFX2_insert237 [mem_ibus_ack] mem_ibus_ack_bF$buf3 d_lut_BUFX2
ABUFX2_insert236 [mem_ibus_ack] mem_ibus_ack_bF$buf4 d_lut_BUFX2
ABUFX2_insert235 [_2110_] _2110__bF$buf0 d_lut_BUFX2
ABUFX2_insert234 [_2110_] _2110__bF$buf1 d_lut_BUFX2
ABUFX2_insert233 [_2110_] _2110__bF$buf2 d_lut_BUFX2
ABUFX2_insert232 [_2110_] _2110__bF$buf3 d_lut_BUFX2
ABUFX2_insert231 [_2110_] _2110__bF$buf4 d_lut_BUFX2
ABUFX2_insert230 [_1686_] _1686__bF$buf0 d_lut_BUFX2
ABUFX2_insert229 [_1686_] _1686__bF$buf1 d_lut_BUFX2
ABUFX2_insert228 [_1686_] _1686__bF$buf2 d_lut_BUFX2
ABUFX2_insert227 [_1686_] _1686__bF$buf3 d_lut_BUFX2
ABUFX2_insert226 [_1686_] _1686__bF$buf4 d_lut_BUFX2
ABUFX2_insert225 [_1525_] _1525__bF$buf0 d_lut_BUFX2
ABUFX2_insert224 [_1525_] _1525__bF$buf1 d_lut_BUFX2
ABUFX2_insert223 [_1525_] _1525__bF$buf2 d_lut_BUFX2
ABUFX2_insert222 [_1525_] _1525__bF$buf3 d_lut_BUFX2
ABUFX2_insert221 [_1525_] _1525__bF$buf4 d_lut_BUFX2
ABUFX2_insert220 [\u_rf_if.stream_cnt\_1_] \u_rf_if.stream_cnt_1_bF$buf0\ d_lut_BUFX2
ABUFX2_insert219 [\u_rf_if.stream_cnt\_1_] \u_rf_if.stream_cnt_1_bF$buf1\ d_lut_BUFX2
ABUFX2_insert218 [\u_rf_if.stream_cnt\_1_] \u_rf_if.stream_cnt_1_bF$buf2\ d_lut_BUFX2
ABUFX2_insert217 [\u_rf_if.stream_cnt\_1_] \u_rf_if.stream_cnt_1_bF$buf3\ d_lut_BUFX2
ABUFX2_insert216 [_5_] _5__bF$buf0 d_lut_BUFX2
ABUFX2_insert215 [_5_] _5__bF$buf1 d_lut_BUFX2
ABUFX2_insert214 [_5_] _5__bF$buf2 d_lut_BUFX2
ABUFX2_insert213 [_5_] _5__bF$buf3 d_lut_BUFX2
ABUFX2_insert212 [_1960_] _1960__bF$buf0 d_lut_BUFX2
ABUFX2_insert211 [_1960_] _1960__bF$buf1 d_lut_BUFX2
ABUFX2_insert210 [_1960_] _1960__bF$buf2 d_lut_BUFX2
ABUFX2_insert209 [_1960_] _1960__bF$buf3 d_lut_BUFX2
ABUFX2_insert208 [_1960_] _1960__bF$buf4 d_lut_BUFX2
ABUFX2_insert207 [\u_cpu.bufreg.i_en\] \u_cpu.bufreg.i_en_bF$buf0\ d_lut_BUFX2
ABUFX2_insert206 [\u_cpu.bufreg.i_en\] \u_cpu.bufreg.i_en_bF$buf1\ d_lut_BUFX2
ABUFX2_insert205 [\u_cpu.bufreg.i_en\] \u_cpu.bufreg.i_en_bF$buf2\ d_lut_BUFX2
ABUFX2_insert204 [\u_cpu.bufreg.i_en\] \u_cpu.bufreg.i_en_bF$buf3\ d_lut_BUFX2
ABUFX2_insert203 [\u_cpu.bufreg.i_en\] \u_cpu.bufreg.i_en_bF$buf4\ d_lut_BUFX2
ABUFX2_insert202 [rf_rreq] rf_rreq_bF$buf0 d_lut_BUFX2
ABUFX2_insert201 [rf_rreq] rf_rreq_bF$buf1 d_lut_BUFX2
ABUFX2_insert200 [rf_rreq] rf_rreq_bF$buf2 d_lut_BUFX2
ABUFX2_insert199 [rf_rreq] rf_rreq_bF$buf3 d_lut_BUFX2
ABUFX2_insert198 [rf_rreq] rf_rreq_bF$buf4 d_lut_BUFX2
ABUFX2_insert197 [rf_rreq] rf_rreq_bF$buf5 d_lut_BUFX2
ABUFX2_insert196 [rf_rreq] rf_rreq_bF$buf6 d_lut_BUFX2
ABUFX2_insert195 [rf_rreq] rf_rreq_bF$buf7 d_lut_BUFX2
ABUFX2_insert194 [\u_rf_if.issue_sel\] \u_rf_if.issue_sel_bF$buf0\ d_lut_BUFX2
ABUFX2_insert193 [\u_rf_if.issue_sel\] \u_rf_if.issue_sel_bF$buf1\ d_lut_BUFX2
ABUFX2_insert192 [\u_rf_if.issue_sel\] \u_rf_if.issue_sel_bF$buf2\ d_lut_BUFX2
ABUFX2_insert191 [\u_rf_if.issue_sel\] \u_rf_if.issue_sel_bF$buf3\ d_lut_BUFX2
ABUFX2_insert190 [_1872_] _1872__bF$buf0 d_lut_BUFX2
ABUFX2_insert189 [_1872_] _1872__bF$buf1 d_lut_BUFX2
ABUFX2_insert188 [_1872_] _1872__bF$buf2 d_lut_BUFX2
ABUFX2_insert187 [_1872_] _1872__bF$buf3 d_lut_BUFX2
ABUFX2_insert186 [_1167_] _1167__bF$buf0 d_lut_BUFX2
ABUFX2_insert185 [_1167_] _1167__bF$buf1 d_lut_BUFX2
ABUFX2_insert184 [_1167_] _1167__bF$buf2 d_lut_BUFX2
ABUFX2_insert183 [_1167_] _1167__bF$buf3 d_lut_BUFX2
ABUFX2_insert182 [_2108_] _2108__bF$buf0 d_lut_BUFX2
ABUFX2_insert181 [_2108_] _2108__bF$buf1 d_lut_BUFX2
ABUFX2_insert180 [_2108_] _2108__bF$buf2 d_lut_BUFX2
ABUFX2_insert179 [_2108_] _2108__bF$buf3 d_lut_BUFX2
ABUFX2_insert178 [_660_] _660__bF$buf0 d_lut_BUFX2
ABUFX2_insert177 [_660_] _660__bF$buf1 d_lut_BUFX2
ABUFX2_insert176 [_660_] _660__bF$buf2 d_lut_BUFX2
ABUFX2_insert175 [_660_] _660__bF$buf3 d_lut_BUFX2
ABUFX2_insert174 [mem_dbus_ack] mem_dbus_ack_bF$buf0 d_lut_BUFX2
ABUFX2_insert173 [mem_dbus_ack] mem_dbus_ack_bF$buf1 d_lut_BUFX2
ABUFX2_insert172 [mem_dbus_ack] mem_dbus_ack_bF$buf2 d_lut_BUFX2
ABUFX2_insert171 [mem_dbus_ack] mem_dbus_ack_bF$buf3 d_lut_BUFX2
ABUFX2_insert170 [mem_dbus_ack] mem_dbus_ack_bF$buf4 d_lut_BUFX2
ABUFX2_insert169 [mem_dbus_ack] mem_dbus_ack_bF$buf5 d_lut_BUFX2
ABUFX2_insert168 [mem_dbus_ack] mem_dbus_ack_bF$buf6 d_lut_BUFX2
ACLKBUF1_insert167 [i_clk_fast] i_clk_fast_bF$buf0 d_lut_CLKBUF1
ACLKBUF1_insert166 [i_clk_fast] i_clk_fast_bF$buf1 d_lut_CLKBUF1
ACLKBUF1_insert165 [i_clk_fast] i_clk_fast_bF$buf2 d_lut_CLKBUF1
ACLKBUF1_insert164 [i_clk_fast] i_clk_fast_bF$buf3 d_lut_CLKBUF1
ACLKBUF1_insert163 [i_clk_fast] i_clk_fast_bF$buf4 d_lut_CLKBUF1
ACLKBUF1_insert162 [i_clk_fast] i_clk_fast_bF$buf5 d_lut_CLKBUF1
ACLKBUF1_insert161 [i_clk_fast] i_clk_fast_bF$buf6 d_lut_CLKBUF1
ACLKBUF1_insert160 [i_clk_fast] i_clk_fast_bF$buf7 d_lut_CLKBUF1
ABUFX2_insert159 [ibus_pending_ack] ibus_pending_ack_bF$buf0 d_lut_BUFX2
ABUFX2_insert158 [ibus_pending_ack] ibus_pending_ack_bF$buf1 d_lut_BUFX2
ABUFX2_insert157 [ibus_pending_ack] ibus_pending_ack_bF$buf2 d_lut_BUFX2
ABUFX2_insert156 [ibus_pending_ack] ibus_pending_ack_bF$buf3 d_lut_BUFX2
ACLKBUF1_insert155 [i_clk_sys_ext_hier0_bF$buf5] i_clk_sys_ext_bF$buf0 d_lut_CLKBUF1
ACLKBUF1_insert154 [i_clk_sys_ext_hier0_bF$buf4] i_clk_sys_ext_bF$buf1 d_lut_CLKBUF1
ACLKBUF1_insert153 [i_clk_sys_ext_hier0_bF$buf3] i_clk_sys_ext_bF$buf2 d_lut_CLKBUF1
ACLKBUF1_insert152 [i_clk_sys_ext_hier0_bF$buf2] i_clk_sys_ext_bF$buf3 d_lut_CLKBUF1
ACLKBUF1_insert151 [i_clk_sys_ext_hier0_bF$buf1] i_clk_sys_ext_bF$buf4 d_lut_CLKBUF1
ACLKBUF1_insert150 [i_clk_sys_ext_hier0_bF$buf0] i_clk_sys_ext_bF$buf5 d_lut_CLKBUF1
ACLKBUF1_insert149 [i_clk_sys_ext_hier0_bF$buf5] i_clk_sys_ext_bF$buf6 d_lut_CLKBUF1
ACLKBUF1_insert148 [i_clk_sys_ext_hier0_bF$buf4] i_clk_sys_ext_bF$buf7 d_lut_CLKBUF1
ACLKBUF1_insert147 [i_clk_sys_ext_hier0_bF$buf3] i_clk_sys_ext_bF$buf8 d_lut_CLKBUF1
ACLKBUF1_insert146 [i_clk_sys_ext_hier0_bF$buf2] i_clk_sys_ext_bF$buf9 d_lut_CLKBUF1
ACLKBUF1_insert145 [i_clk_sys_ext_hier0_bF$buf1] i_clk_sys_ext_bF$buf10 d_lut_CLKBUF1
ACLKBUF1_insert144 [i_clk_sys_ext_hier0_bF$buf0] i_clk_sys_ext_bF$buf11 d_lut_CLKBUF1
ACLKBUF1_insert143 [i_clk_sys_ext_hier0_bF$buf5] i_clk_sys_ext_bF$buf12 d_lut_CLKBUF1
ACLKBUF1_insert142 [i_clk_sys_ext_hier0_bF$buf4] i_clk_sys_ext_bF$buf13 d_lut_CLKBUF1
ACLKBUF1_insert141 [i_clk_sys_ext_hier0_bF$buf3] i_clk_sys_ext_bF$buf14 d_lut_CLKBUF1
ACLKBUF1_insert140 [i_clk_sys_ext_hier0_bF$buf2] i_clk_sys_ext_bF$buf15 d_lut_CLKBUF1
ACLKBUF1_insert139 [i_clk_sys_ext_hier0_bF$buf1] i_clk_sys_ext_bF$buf16 d_lut_CLKBUF1
ACLKBUF1_insert138 [i_clk_sys_ext_hier0_bF$buf0] i_clk_sys_ext_bF$buf17 d_lut_CLKBUF1
ACLKBUF1_insert137 [i_clk_sys_ext_hier0_bF$buf5] i_clk_sys_ext_bF$buf18 d_lut_CLKBUF1
ACLKBUF1_insert136 [i_clk_sys_ext_hier0_bF$buf4] i_clk_sys_ext_bF$buf19 d_lut_CLKBUF1
ACLKBUF1_insert135 [i_clk_sys_ext_hier0_bF$buf3] i_clk_sys_ext_bF$buf20 d_lut_CLKBUF1
ACLKBUF1_insert134 [i_clk_sys_ext_hier0_bF$buf2] i_clk_sys_ext_bF$buf21 d_lut_CLKBUF1
ACLKBUF1_insert133 [i_clk_sys_ext_hier0_bF$buf1] i_clk_sys_ext_bF$buf22 d_lut_CLKBUF1
ACLKBUF1_insert132 [i_clk_sys_ext_hier0_bF$buf0] i_clk_sys_ext_bF$buf23 d_lut_CLKBUF1
ACLKBUF1_insert131 [i_clk_sys_ext_hier0_bF$buf5] i_clk_sys_ext_bF$buf24 d_lut_CLKBUF1
ACLKBUF1_insert130 [i_clk_sys_ext_hier0_bF$buf4] i_clk_sys_ext_bF$buf25 d_lut_CLKBUF1
ACLKBUF1_insert129 [i_clk_sys_ext_hier0_bF$buf3] i_clk_sys_ext_bF$buf26 d_lut_CLKBUF1
ACLKBUF1_insert128 [i_clk_sys_ext_hier0_bF$buf2] i_clk_sys_ext_bF$buf27 d_lut_CLKBUF1
ACLKBUF1_insert127 [i_clk_sys_ext_hier0_bF$buf1] i_clk_sys_ext_bF$buf28 d_lut_CLKBUF1
ACLKBUF1_insert126 [i_clk_sys_ext_hier0_bF$buf0] i_clk_sys_ext_bF$buf29 d_lut_CLKBUF1
ACLKBUF1_insert125 [i_clk_sys_ext_hier0_bF$buf5] i_clk_sys_ext_bF$buf30 d_lut_CLKBUF1
ACLKBUF1_insert124 [i_clk_sys_ext_hier0_bF$buf4] i_clk_sys_ext_bF$buf31 d_lut_CLKBUF1
ACLKBUF1_insert123 [i_clk_sys_ext_hier0_bF$buf3] i_clk_sys_ext_bF$buf32 d_lut_CLKBUF1
ACLKBUF1_insert122 [i_clk_sys_ext_hier0_bF$buf2] i_clk_sys_ext_bF$buf33 d_lut_CLKBUF1
ACLKBUF1_insert121 [i_clk_sys_ext_hier0_bF$buf1] i_clk_sys_ext_bF$buf34 d_lut_CLKBUF1
ACLKBUF1_insert120 [i_clk_sys_ext_hier0_bF$buf0] i_clk_sys_ext_bF$buf35 d_lut_CLKBUF1
ACLKBUF1_insert119 [i_clk_sys_ext_hier0_bF$buf5] i_clk_sys_ext_bF$buf36 d_lut_CLKBUF1
ACLKBUF1_insert118 [i_clk_sys_ext_hier0_bF$buf4] i_clk_sys_ext_bF$buf37 d_lut_CLKBUF1
ACLKBUF1_insert117 [i_clk_sys_ext_hier0_bF$buf3] i_clk_sys_ext_bF$buf38 d_lut_CLKBUF1
ACLKBUF1_insert116 [i_clk_sys_ext_hier0_bF$buf2] i_clk_sys_ext_bF$buf39 d_lut_CLKBUF1
ACLKBUF1_insert115 [i_clk_sys_ext_hier0_bF$buf1] i_clk_sys_ext_bF$buf40 d_lut_CLKBUF1
ACLKBUF1_insert114 [i_clk_sys_ext_hier0_bF$buf0] i_clk_sys_ext_bF$buf41 d_lut_CLKBUF1
ACLKBUF1_insert113 [i_clk_sys_ext_hier0_bF$buf5] i_clk_sys_ext_bF$buf42 d_lut_CLKBUF1
ACLKBUF1_insert112 [i_clk_sys_ext_hier0_bF$buf4] i_clk_sys_ext_bF$buf43 d_lut_CLKBUF1
ACLKBUF1_insert111 [i_clk_sys_ext_hier0_bF$buf3] i_clk_sys_ext_bF$buf44 d_lut_CLKBUF1
ACLKBUF1_insert110 [i_clk_sys_ext_hier0_bF$buf2] i_clk_sys_ext_bF$buf45 d_lut_CLKBUF1
ABUFX2_insert109 [rst] rst_bF$buf0 d_lut_BUFX2
ABUFX2_insert108 [rst] rst_bF$buf1 d_lut_BUFX2
ABUFX2_insert107 [rst] rst_bF$buf2 d_lut_BUFX2
ABUFX2_insert106 [rst] rst_bF$buf3 d_lut_BUFX2
ABUFX2_insert105 [rst] rst_bF$buf4 d_lut_BUFX2
ABUFX2_insert104 [rst] rst_bF$buf5 d_lut_BUFX2
ABUFX2_insert103 [rst] rst_bF$buf6 d_lut_BUFX2
ABUFX2_insert102 [rst] rst_bF$buf7 d_lut_BUFX2
ABUFX2_insert101 [rst] rst_bF$buf8 d_lut_BUFX2
ABUFX2_insert100 [rst] rst_bF$buf9 d_lut_BUFX2
ABUFX2_insert99 [rst] rst_bF$buf10 d_lut_BUFX2
ABUFX2_insert98 [_1861_] _1861__bF$buf0 d_lut_BUFX2
ABUFX2_insert97 [_1861_] _1861__bF$buf1 d_lut_BUFX2
ABUFX2_insert96 [_1861_] _1861__bF$buf2 d_lut_BUFX2
ABUFX2_insert95 [_1861_] _1861__bF$buf3 d_lut_BUFX2
ABUFX2_insert94 [_1861_] _1861__bF$buf4 d_lut_BUFX2
ABUFX2_insert93 [_1861_] _1861__bF$buf5 d_lut_BUFX2
ABUFX2_insert92 [i_rst_n] i_rst_n_bF$buf0 d_lut_BUFX2
ABUFX2_insert91 [i_rst_n] i_rst_n_bF$buf1 d_lut_BUFX2
ABUFX2_insert90 [i_rst_n] i_rst_n_bF$buf2 d_lut_BUFX2
ABUFX2_insert89 [i_rst_n] i_rst_n_bF$buf3 d_lut_BUFX2
ABUFX2_insert88 [i_rst_n] i_rst_n_bF$buf4 d_lut_BUFX2
ABUFX2_insert87 [i_rst_n] i_rst_n_bF$buf5 d_lut_BUFX2
ABUFX2_insert86 [_1159_] _1159__bF$buf0 d_lut_BUFX2
ABUFX2_insert85 [_1159_] _1159__bF$buf1 d_lut_BUFX2
ABUFX2_insert84 [_1159_] _1159__bF$buf2 d_lut_BUFX2
ABUFX2_insert83 [_1159_] _1159__bF$buf3 d_lut_BUFX2
ABUFX2_insert82 [_1159_] _1159__bF$buf4 d_lut_BUFX2
ABUFX2_insert81 [\u_mem_serial.bit_count\_0_] \u_mem_serial.bit_count_0_bF$buf0\ d_lut_BUFX2
ABUFX2_insert80 [\u_mem_serial.bit_count\_0_] \u_mem_serial.bit_count_0_bF$buf1\ d_lut_BUFX2
ABUFX2_insert79 [\u_mem_serial.bit_count\_0_] \u_mem_serial.bit_count_0_bF$buf2\ d_lut_BUFX2
ABUFX2_insert78 [\u_mem_serial.bit_count\_0_] \u_mem_serial.bit_count_0_bF$buf3\ d_lut_BUFX2
ABUFX2_insert77 [_1315_] _1315__bF$buf0 d_lut_BUFX2
ABUFX2_insert76 [_1315_] _1315__bF$buf1 d_lut_BUFX2
ABUFX2_insert75 [_1315_] _1315__bF$buf2 d_lut_BUFX2
ABUFX2_insert74 [_1315_] _1315__bF$buf3 d_lut_BUFX2
ABUFX2_insert73 [_1315_] _1315__bF$buf4 d_lut_BUFX2
ABUFX2_insert72 [_1315_] _1315__bF$buf5 d_lut_BUFX2
ABUFX2_insert71 [_1297_] _1297__bF$buf0 d_lut_BUFX2
ABUFX2_insert70 [_1297_] _1297__bF$buf1 d_lut_BUFX2
ABUFX2_insert69 [_1297_] _1297__bF$buf2 d_lut_BUFX2
ABUFX2_insert68 [_1297_] _1297__bF$buf3 d_lut_BUFX2
ABUFX2_insert67 [_27_] _27__bF$buf0 d_lut_BUFX2
ABUFX2_insert66 [_27_] _27__bF$buf1 d_lut_BUFX2
ABUFX2_insert65 [_27_] _27__bF$buf2 d_lut_BUFX2
ABUFX2_insert64 [_27_] _27__bF$buf3 d_lut_BUFX2
ABUFX2_insert63 [_27_] _27__bF$buf4 d_lut_BUFX2
ABUFX2_insert62 [_1800_] _1800__bF$buf0 d_lut_BUFX2
ABUFX2_insert61 [_1800_] _1800__bF$buf1 d_lut_BUFX2
ABUFX2_insert60 [_1800_] _1800__bF$buf2 d_lut_BUFX2
ABUFX2_insert59 [_1800_] _1800__bF$buf3 d_lut_BUFX2
ABUFX2_insert58 [ren] ren_bF$buf0 d_lut_BUFX2
ABUFX2_insert57 [ren] ren_bF$buf1 d_lut_BUFX2
ABUFX2_insert56 [ren] ren_bF$buf2 d_lut_BUFX2
ABUFX2_insert55 [ren] ren_bF$buf3 d_lut_BUFX2
ABUFX2_insert54 [ren] ren_bF$buf4 d_lut_BUFX2
ABUFX2_insert53 [_1688_] _1688__bF$buf0 d_lut_BUFX2
ABUFX2_insert52 [_1688_] _1688__bF$buf1 d_lut_BUFX2
ABUFX2_insert51 [_1688_] _1688__bF$buf2 d_lut_BUFX2
ABUFX2_insert50 [_1688_] _1688__bF$buf3 d_lut_BUFX2
ABUFX2_insert49 [_1688_] _1688__bF$buf4 d_lut_BUFX2
ABUFX2_insert48 [\u_mem_serial.active_ibus\] \u_mem_serial.active_ibus_bF$buf0\ d_lut_BUFX2
ABUFX2_insert47 [\u_mem_serial.active_ibus\] \u_mem_serial.active_ibus_bF$buf1\ d_lut_BUFX2
ABUFX2_insert46 [\u_mem_serial.active_ibus\] \u_mem_serial.active_ibus_bF$buf2\ d_lut_BUFX2
ABUFX2_insert45 [\u_mem_serial.active_ibus\] \u_mem_serial.active_ibus_bF$buf3\ d_lut_BUFX2
ABUFX2_insert44 [\u_mem_serial.active_ibus\] \u_mem_serial.active_ibus_bF$buf4\ d_lut_BUFX2
ABUFX2_insert43 [\u_mem_serial.active_ibus\] \u_mem_serial.active_ibus_bF$buf5\ d_lut_BUFX2
ABUFX2_insert42 [\u_mem_serial.active_ibus\] \u_mem_serial.active_ibus_bF$buf6\ d_lut_BUFX2
ABUFX2_insert41 [_887_] _887__bF$buf0 d_lut_BUFX2
ABUFX2_insert40 [_887_] _887__bF$buf1 d_lut_BUFX2
ABUFX2_insert39 [_887_] _887__bF$buf2 d_lut_BUFX2
ABUFX2_insert38 [_887_] _887__bF$buf3 d_lut_BUFX2
ABUFX2_insert37 [_887_] _887__bF$buf4 d_lut_BUFX2
ABUFX2_insert36 [\u_rf_if.stream_cnt\_0_] \u_rf_if.stream_cnt_0_bF$buf0\ d_lut_BUFX2
ABUFX2_insert35 [\u_rf_if.stream_cnt\_0_] \u_rf_if.stream_cnt_0_bF$buf1\ d_lut_BUFX2
ABUFX2_insert34 [\u_rf_if.stream_cnt\_0_] \u_rf_if.stream_cnt_0_bF$buf2\ d_lut_BUFX2
ABUFX2_insert33 [\u_rf_if.stream_cnt\_0_] \u_rf_if.stream_cnt_0_bF$buf3\ d_lut_BUFX2
ABUFX2_insert32 [\u_rf_if.stream_cnt\_0_] \u_rf_if.stream_cnt_0_bF$buf4\ d_lut_BUFX2
ABUFX2_insert31 [\u_rf_if.stream_cnt\_0_] \u_rf_if.stream_cnt_0_bF$buf5\ d_lut_BUFX2
ABUFX2_insert30 [_441_] _441__bF$buf0 d_lut_BUFX2
ABUFX2_insert29 [_441_] _441__bF$buf1 d_lut_BUFX2
ABUFX2_insert28 [_441_] _441__bF$buf2 d_lut_BUFX2
ABUFX2_insert27 [_441_] _441__bF$buf3 d_lut_BUFX2
ABUFX2_insert26 [_1377_] _1377__bF$buf0 d_lut_BUFX2
ABUFX2_insert25 [_1377_] _1377__bF$buf1 d_lut_BUFX2
ABUFX2_insert24 [_1377_] _1377__bF$buf2 d_lut_BUFX2
ABUFX2_insert23 [_1377_] _1377__bF$buf3 d_lut_BUFX2
ABUFX2_insert22 [_479_] _479__bF$buf0 d_lut_BUFX2
ABUFX2_insert21 [_479_] _479__bF$buf1 d_lut_BUFX2
ABUFX2_insert20 [_479_] _479__bF$buf2 d_lut_BUFX2
ABUFX2_insert19 [_479_] _479__bF$buf3 d_lut_BUFX2
ABUFX2_insert18 [_215_] _215__bF$buf0 d_lut_BUFX2
ABUFX2_insert17 [_215_] _215__bF$buf1 d_lut_BUFX2
ABUFX2_insert16 [_215_] _215__bF$buf2 d_lut_BUFX2
ABUFX2_insert15 [_215_] _215__bF$buf3 d_lut_BUFX2
ABUFX2_insert14 [_1304_] _1304__bF$buf0 d_lut_BUFX2
ABUFX2_insert13 [_1304_] _1304__bF$buf1 d_lut_BUFX2
ABUFX2_insert12 [_1304_] _1304__bF$buf2 d_lut_BUFX2
ABUFX2_insert11 [_1304_] _1304__bF$buf3 d_lut_BUFX2
ABUFX2_insert10 [_1304_] _1304__bF$buf4 d_lut_BUFX2
ABUFX2_insert9 [_13_] _13__bF$buf0 d_lut_BUFX2
ABUFX2_insert8 [_13_] _13__bF$buf1 d_lut_BUFX2
ABUFX2_insert7 [_13_] _13__bF$buf2 d_lut_BUFX2
ABUFX2_insert6 [_13_] _13__bF$buf3 d_lut_BUFX2
ABUFX2_insert5 [_13_] _13__bF$buf4 d_lut_BUFX2
ABUFX2_insert4 [_1959_] _1959__bF$buf0 d_lut_BUFX2
ABUFX2_insert3 [_1959_] _1959__bF$buf1 d_lut_BUFX2
ABUFX2_insert2 [_1959_] _1959__bF$buf2 d_lut_BUFX2
ABUFX2_insert1 [_1959_] _1959__bF$buf3 d_lut_BUFX2
ABUFX2_insert0 [_1959_] _1959__bF$buf4 d_lut_BUFX2
A_2124_ [_2122_] o_rf_sync d_lut_BUFX2
A_2125_ [_2121_] o_rf_sck d_lut_BUFX2
A_2126_ [_2120_] o_rf_mosi d_lut_BUFX2
A_2127_ [_2119_] o_mem_sync d_lut_BUFX2
A_2128_ [_2118_] o_mem_sck d_lut_BUFX2
A_2129_ [_2117_] o_mem_mosi d_lut_BUFX2
A_2130_ [vdd] o_uart_tx d_lut_BUFX2
A_2131_ [gnd] o_gpio_7_ d_lut_BUFX2
A_2132_ [gnd] o_gpio_6_ d_lut_BUFX2
A_2133_ [gnd] o_gpio_5_ d_lut_BUFX2
A_2134_ [gnd] o_gpio_4_ d_lut_BUFX2
A_2135_ [gnd] o_gpio_3_ d_lut_BUFX2
A_2136_ [gnd] o_gpio_2_ d_lut_BUFX2
A_2137_ [gnd] o_gpio_1_ d_lut_BUFX2
A_2138_ [gnd] o_gpio_0_ d_lut_BUFX2
A_2139_ [gnd] o_gpio_oe_7_ d_lut_BUFX2
A_2140_ [gnd] o_gpio_oe_6_ d_lut_BUFX2
A_2141_ [gnd] o_gpio_oe_5_ d_lut_BUFX2
A_2142_ [gnd] o_gpio_oe_4_ d_lut_BUFX2
A_2143_ [gnd] o_gpio_oe_3_ d_lut_BUFX2
A_2144_ [gnd] o_gpio_oe_2_ d_lut_BUFX2
A_2145_ [gnd] o_gpio_oe_1_ d_lut_BUFX2
A_2146_ [gnd] o_gpio_oe_0_ d_lut_BUFX2
A_2147_ _782_ i_clk_fast_bF$buf7 NULL NULL \u_mem_serial.shift_rx\_22_ NULL ddflop
A_2148_ _770_ i_clk_fast_bF$buf6 NULL NULL \u_mem_serial.bit_count\_2_ NULL ddflop
A_2149_ _793_ i_clk_fast_bF$buf5 NULL NULL \u_mem_serial.shift_rx\_13_ NULL ddflop
A_2150_ _771_ i_clk_fast_bF$buf4 NULL NULL \u_mem_serial.bit_count\_1_ NULL ddflop
A_2151_ _748_ i_clk_fast_bF$buf3 NULL NULL \u_mem_serial.shift_rx\_11_ NULL ddflop
A_2152_ _783_ i_clk_fast_bF$buf2 NULL NULL mem_ibus_ack NULL ddflop
A_2153_ _749_ i_clk_fast_bF$buf1 NULL NULL \u_mem_serial.shift_rx\_10_ NULL ddflop
A_2154_ _772_ i_clk_fast_bF$buf0 NULL NULL \u_mem_serial.bit_count\_0_ NULL ddflop
A_2155_ _750_ i_clk_fast_bF$buf7 NULL NULL \u_mem_serial.shift_rx\_9_ NULL ddflop
A_2156_ _789_ i_clk_fast_bF$buf6 NULL NULL \u_mem_serial.shift_rx\_17_ NULL ddflop
A_2157_ _751_ i_clk_fast_bF$buf5 NULL NULL \u_mem_serial.shift_rx\_8_ NULL ddflop
A_2158_ _773_ i_clk_fast_bF$buf4 NULL NULL \u_mem_serial.shift_rx\_31_ NULL ddflop
A_2159_ [_1440_ _1441_ rst_bF$buf10] _793_ d_lut_AOI21X1
A_2160_ [\u_mem_serial.shift_rx\_12_ _1377__bF$buf3] _1441_ d_lut_NAND2X1
A_2161_ [_1315__bF$buf5 _1304__bF$buf4 \u_mem_serial.shift_rx\_13_] _1440_ d_lut_OAI21X1
A_2162_ [_1438_ _1439_ rst_bF$buf9] _792_ d_lut_AOI21X1
A_2163_ [\u_mem_serial.shift_rx\_13_ _1377__bF$buf2] _1439_ d_lut_NAND2X1
A_2164_ [_1315__bF$buf4 _1304__bF$buf3 \u_mem_serial.shift_rx\_14_] _1438_ d_lut_OAI21X1
A_2165_ [_1436_ _1437_ rst_bF$buf8] _791_ d_lut_AOI21X1
A_2166_ [\u_mem_serial.shift_rx\_14_ _1377__bF$buf1] _1437_ d_lut_NAND2X1
A_2167_ [_1315__bF$buf3 _1304__bF$buf2 \u_mem_serial.shift_rx\_15_] _1436_ d_lut_OAI21X1
A_2168_ [_1434_ _1435_ rst_bF$buf7] _790_ d_lut_AOI21X1
A_2169_ [\u_mem_serial.shift_rx\_15_ _1377__bF$buf0] _1435_ d_lut_NAND2X1
A_2170_ [_1315__bF$buf2 _1304__bF$buf1 \u_mem_serial.shift_rx\_16_] _1434_ d_lut_OAI21X1
A_2171_ [_1432_ _1433_ rst_bF$buf6] _789_ d_lut_AOI21X1
A_2172_ [\u_mem_serial.shift_rx\_16_ _1377__bF$buf3] _1433_ d_lut_NAND2X1
A_2173_ [_1315__bF$buf1 _1304__bF$buf0 \u_mem_serial.shift_rx\_17_] _1432_ d_lut_OAI21X1
A_2174_ [_1430_ _1431_ rst_bF$buf5] _788_ d_lut_AOI21X1
A_2175_ [\u_mem_serial.shift_rx\_17_ _1377__bF$buf2] _1431_ d_lut_NAND2X1
A_2176_ [_1315__bF$buf0 _1304__bF$buf4 \u_mem_serial.shift_rx\_18_] _1430_ d_lut_OAI21X1
A_2177_ [_1428_ _1429_ rst_bF$buf4] _787_ d_lut_AOI21X1
A_2178_ [\u_mem_serial.shift_rx\_18_ _1377__bF$buf1] _1429_ d_lut_NAND2X1
A_2179_ [_1315__bF$buf5 _1304__bF$buf3 \u_mem_serial.shift_rx\_19_] _1428_ d_lut_OAI21X1
A_2180_ [_1427_ _1373_ rst_bF$buf3] _786_ d_lut_AOI21X1
A_2181_ [\u_mem_serial.state\_1_ _1368_ _1426_] _1427_ d_lut_OAI21X1
A_2182_ [_794_ _1305_] _1426_ d_lut_NOR2X1
A_2183_ [_1424_ _1425_ rst_bF$buf2] _785_ d_lut_AOI21X1
A_2184_ [\u_mem_serial.shift_rx\_19_ _1377__bF$buf0] _1425_ d_lut_NAND2X1
A_2185_ [_1315__bF$buf4 _1304__bF$buf2 \u_mem_serial.shift_rx\_20_] _1424_ d_lut_OAI21X1
A_2186_ [_1422_ _1423_ rst_bF$buf1] _784_ d_lut_AOI21X1
A_2187_ [\u_mem_serial.shift_rx\_20_ _1377__bF$buf3] _1423_ d_lut_NAND2X1
A_2188_ [_1315__bF$buf3 _1304__bF$buf1 \u_mem_serial.shift_rx\_21_] _1422_ d_lut_OAI21X1
A_2189_ [_1420_ _1419_ _1421_] _783_ d_lut_AOI21X1
A_2190_ [_1308_ _1411_] _1421_ d_lut_NAND2X1
A_2191_ [\u_mem_serial.active_ibus_bF$buf6\ _1376_ _1412_] _1420_ d_lut_OAI21X1
A_2192_ [mem_ibus_ack_bF$buf4] _1419_ d_lut_INVX1
A_2193_ [_1417_ _1418_ rst_bF$buf0] _782_ d_lut_AOI21X1
A_2194_ [\u_mem_serial.shift_rx\_21_ _1377__bF$buf2] _1418_ d_lut_NAND2X1
A_2195_ [_1315__bF$buf2 _1304__bF$buf0 \u_mem_serial.shift_rx\_22_] _1417_ d_lut_OAI21X1
A_2196_ [_1415_ _1416_ rst_bF$buf10] _781_ d_lut_AOI21X1
A_2197_ [\u_mem_serial.shift_rx\_22_ _1377__bF$buf1] _1416_ d_lut_NAND2X1
A_2198_ [_1315__bF$buf1 _1304__bF$buf4 \u_mem_serial.shift_rx\_23_] _1415_ d_lut_OAI21X1
A_2199_ [rst_bF$buf9 _1414_] _780_ d_lut_NOR2X1
A_2200_ [mem_dbus_ack_bF$buf6 _1297__bF$buf3 _1413_] _1414_ d_lut_MUX2X1
A_2201_ [_810_ _1296_ _1412_] _1413_ d_lut_OAI21X1
A_2202_ [\u_mem_serial.state\_1_ _1368_ _1411_] _1412_ d_lut_OAI21X1
A_2203_ [_1312_ _1408_ _1296_] _1411_ d_lut_OAI21X1
A_2204_ [_1410_ _1407_ rst_bF$buf8] _779_ d_lut_AOI21X1
A_2205_ [_1305_ _1409_ _1408_] _1410_ d_lut_NAND3X1
A_2206_ [\u_mem_serial.req_pending\ _1309_] _1409_ d_lut_NOR2X1
A_2207_ [_1307_] _1408_ d_lut_INVX1
A_2208_ [_1370_ _1307_ \u_mem_serial.req_pending\] _1407_ d_lut_OAI21X1
A_2209_ [_1372_ _1405_ _1406_] _778_ d_lut_AOI21X1
A_2210_ [\u_mem_serial.active_we\ _1372_ _1308_] _1406_ d_lut_OAI21X1
A_2211_ [\u_cpu.o_dbus_cyc\ \u_cpu.bufreg2.i_op_b_sel\ _1308_] _1405_ d_lut_NAND3X1
A_2212_ [_1403_ _1404_ rst_bF$buf7] _777_ d_lut_AOI21X1
A_2213_ [\u_mem_serial.shift_rx\_23_ _1377__bF$buf0] _1404_ d_lut_NAND2X1
A_2214_ [_1315__bF$buf0 _1304__bF$buf3 \u_mem_serial.shift_rx\_24_] _1403_ d_lut_OAI21X1
A_2215_ [_1402_ _1308_] _776_ d_lut_AND2X2
A_2216_ [_1376_ _1368_ _1401_] _1402_ d_lut_OAI21X1
A_2217_ [\u_mem_serial.state\_1_ _1296_ _1307_] _1401_ d_lut_NAND3X1
A_2218_ [_1399_ _1400_ rst_bF$buf6] _775_ d_lut_AOI21X1
A_2219_ [\u_mem_serial.shift_rx\_24_ _1377__bF$buf3] _1400_ d_lut_NAND2X1
A_2220_ [_1315__bF$buf5 _1304__bF$buf2 \u_mem_serial.shift_rx\_25_] _1399_ d_lut_OAI21X1
A_2221_ [_1397_ _1398_ rst_bF$buf5] _774_ d_lut_AOI21X1
A_2222_ [\u_mem_serial.shift_rx\_25_ _1377__bF$buf2] _1398_ d_lut_NAND2X1
A_2223_ [_1315__bF$buf4 _1304__bF$buf1 \u_mem_serial.shift_rx\_26_] _1397_ d_lut_OAI21X1
A_2224_ [_1395_ _1396_ rst_bF$buf4] _773_ d_lut_AOI21X1
A_2225_ [\u_mem_serial.shift_rx\_30_ _1377__bF$buf1] _1396_ d_lut_NAND2X1
A_2226_ [_1315__bF$buf3 _1304__bF$buf0 \u_mem_serial.shift_rx\_31_] _1395_ d_lut_OAI21X1
A_2227_ [_1314_ \u_mem_serial.bit_count_0_bF$buf3\ _1394_] _772_ d_lut_AOI21X1
A_2228_ [\u_mem_serial.bit_count_0_bF$buf2\ _1297__bF$buf2 _1308_] _1394_ d_lut_OAI21X1
A_2229_ [_1315__bF$buf2 _799_ _1393_] _771_ d_lut_AOI21X1
A_2230_ [_1376_ _809_ _1308_] _1393_ d_lut_OAI21X1
A_2231_ [_1315__bF$buf1 _800_ _1392_] _770_ d_lut_AOI21X1
A_2232_ [_805_ _1376_ _1308_] _1392_ d_lut_OAI21X1
A_2233_ [rst_bF$buf3 _1391_] _769_ d_lut_NOR2X1
A_2234_ [_853_ _1297__bF$buf1 _1315__bF$buf0 \u_mem_serial.bit_count\_3_] _1391_ d_lut_AOI22X1
A_2235_ [rst_bF$buf2 _1390_] _768_ d_lut_NOR2X1
A_2236_ [_1007_ _1297__bF$buf0 _1315__bF$buf5 \u_mem_serial.bit_count\_4_] _1390_ d_lut_AOI22X1
A_2237_ [_1389_ _1388_ rst_bF$buf1] _767_ d_lut_AOI21X1
A_2238_ [_1297__bF$buf3 _1046_] _1389_ d_lut_NAND2X1
A_2239_ [_1313_ _1311_ \u_mem_serial.bit_count\_5_] _1388_ d_lut_OAI21X1
A_2240_ [_1386_ _1387_ rst_bF$buf0] _766_ d_lut_AOI21X1
A_2241_ [\u_mem_serial.shift_rx\_26_ _1377__bF$buf0] _1387_ d_lut_NAND2X1
A_2242_ [_1315__bF$buf4 _1304__bF$buf4 \u_mem_serial.shift_rx\_27_] _1386_ d_lut_OAI21X1
A_2243_ [_1384_ _1385_ rst_bF$buf10] _765_ d_lut_AOI21X1
A_2244_ [\u_mem_serial.shift_rx\_27_ _1377__bF$buf3] _1385_ d_lut_NAND2X1
A_2245_ [_1315__bF$buf3 _1304__bF$buf3 \u_mem_serial.shift_rx\_28_] _1384_ d_lut_OAI21X1
A_2246_ [_1382_ _1383_ rst_bF$buf9] _764_ d_lut_AOI21X1
A_2247_ [\u_mem_serial.shift_rx\_28_ _1377__bF$buf2] _1383_ d_lut_NAND2X1
A_2248_ [_1315__bF$buf2 _1304__bF$buf2 \u_mem_serial.shift_rx\_29_] _1382_ d_lut_OAI21X1
A_2249_ [_1381_ _1379_ rst_bF$buf8] _763_ d_lut_AOI21X1
A_2250_ [_1380_ \u_cpu.o_ibus_cyc\ _1372_] _1381_ d_lut_NAND3X1
A_2251_ [\u_cpu.o_dbus_cyc\] _1380_ d_lut_INVX1
A_2252_ [_1370_ _1371_ \u_mem_serial.active_ibus_bF$buf5\] _1379_ d_lut_OAI21X1
A_2253_ [_1375_ _1378_ rst_bF$buf7] _762_ d_lut_AOI21X1
A_2254_ [\u_mem_serial.shift_rx\_29_ _1377__bF$buf1] _1378_ d_lut_NAND2X1
A_2255_ [_1376_ _1302_] _1377_ d_lut_NOR2X1
A_2256_ [_1297__bF$buf2] _1376_ d_lut_INVX2
A_2257_ [_1315__bF$buf1 _1304__bF$buf1 \u_mem_serial.shift_rx\_30_] _1375_ d_lut_OAI21X1
A_2258_ [_1086_ _1297__bF$buf1 _1374_] _761_ d_lut_AOI21X1
A_2259_ [\u_mem_serial.bit_count\_6_ _1314_ _1308_] _1374_ d_lut_OAI21X1
A_2260_ [_1369_ _1373_ rst_bF$buf6] _760_ d_lut_AOI21X1
A_2261_ [_1372_] _1373_ d_lut_INVX1
A_2262_ [_1370_ _1371_] _1372_ d_lut_NOR2X1
A_2263_ [\u_mem_serial.req_pending\ _1370_ _1310_] _1371_ d_lut_OAI21X1
A_2264_ [_1305_] _1370_ d_lut_INVX1
A_2265_ [_1297__bF$buf0 _1368_] _1369_ d_lut_NAND2X1
A_2266_ [\u_mem_serial.bit_count_0_bF$buf1\ _1083_ _1299_] _1368_ d_lut_NAND3X1
A_2267_ [_1364_ _1367_ rst_bF$buf5] _759_ d_lut_AOI21X1
A_2268_ [_1314_ _1366_ _1303_] _1367_ d_lut_NAND3X1
A_2269_ [_1365_] _1366_ d_lut_INVX1
A_2270_ [i_mem_miso _1297__bF$buf3] _1365_ d_lut_NAND2X1
A_2271_ [_1315__bF$buf0 _1304__bF$buf0 \u_mem_serial.shift_rx\_0_] _1364_ d_lut_OAI21X1
A_2272_ [_1360_ _1363_ rst_bF$buf4] _758_ d_lut_AOI21X1
A_2273_ [_1314_ _1362_ _1303_] _1363_ d_lut_NAND3X1
A_2274_ [_1361_] _1362_ d_lut_INVX1
A_2275_ [\u_mem_serial.shift_rx\_0_ _1297__bF$buf2] _1361_ d_lut_NAND2X1
A_2276_ [_1315__bF$buf5 _1304__bF$buf4 \u_mem_serial.shift_rx\_1_] _1360_ d_lut_OAI21X1
A_2277_ [_1356_ _1359_ rst_bF$buf3] _757_ d_lut_AOI21X1
A_2278_ [_1314_ _1358_ _1303_] _1359_ d_lut_NAND3X1
A_2279_ [_1357_] _1358_ d_lut_INVX1
A_2280_ [\u_mem_serial.shift_rx\_1_ _1297__bF$buf1] _1357_ d_lut_NAND2X1
A_2281_ [_1315__bF$buf4 _1304__bF$buf3 \u_mem_serial.shift_rx\_2_] _1356_ d_lut_OAI21X1
A_2282_ [_1352_ _1355_ rst_bF$buf2] _756_ d_lut_AOI21X1
A_2283_ [_1314_ _1354_ _1303_] _1355_ d_lut_NAND3X1
A_2284_ [_1353_] _1354_ d_lut_INVX1
A_2285_ [\u_mem_serial.shift_rx\_2_ _1297__bF$buf0] _1353_ d_lut_NAND2X1
A_2286_ [_1315__bF$buf3 _1304__bF$buf2 \u_mem_serial.shift_rx\_3_] _1352_ d_lut_OAI21X1
A_2287_ [_1348_ _1351_ rst_bF$buf1] _755_ d_lut_AOI21X1
A_2288_ [_1314_ _1350_ _1303_] _1351_ d_lut_NAND3X1
A_2289_ [_1349_] _1350_ d_lut_INVX1
A_2290_ [\u_mem_serial.shift_rx\_3_ _1297__bF$buf3] _1349_ d_lut_NAND2X1
A_2291_ [_1315__bF$buf2 _1304__bF$buf1 \u_mem_serial.shift_rx\_4_] _1348_ d_lut_OAI21X1
A_2292_ [_1344_ _1347_ rst_bF$buf0] _754_ d_lut_AOI21X1
A_2293_ [_1314_ _1346_ _1303_] _1347_ d_lut_NAND3X1
A_2294_ [_1345_] _1346_ d_lut_INVX1
A_2295_ [\u_mem_serial.shift_rx\_4_ _1297__bF$buf2] _1345_ d_lut_NAND2X1
A_2296_ [_1315__bF$buf1 _1304__bF$buf0 \u_mem_serial.shift_rx\_5_] _1344_ d_lut_OAI21X1
A_2297_ [_1340_ _1343_ rst_bF$buf10] _753_ d_lut_AOI21X1
A_2298_ [_1314_ _1342_ _1303_] _1343_ d_lut_NAND3X1
A_2299_ [_1341_] _1342_ d_lut_INVX1
A_2300_ [\u_mem_serial.shift_rx\_5_ _1297__bF$buf1] _1341_ d_lut_NAND2X1
A_2301_ [_1315__bF$buf0 _1304__bF$buf4 \u_mem_serial.shift_rx\_6_] _1340_ d_lut_OAI21X1
A_2302_ [_1336_ _1339_ rst_bF$buf9] _752_ d_lut_AOI21X1
A_2303_ [_1314_ _1338_ _1303_] _1339_ d_lut_NAND3X1
A_2304_ [_1337_] _1338_ d_lut_INVX1
A_2305_ [\u_mem_serial.shift_rx\_6_ _1297__bF$buf0] _1337_ d_lut_NAND2X1
A_2306_ [_1315__bF$buf5 _1304__bF$buf3 \u_mem_serial.shift_rx\_7_] _1336_ d_lut_OAI21X1
A_2307_ [_1332_ _1335_ rst_bF$buf8] _751_ d_lut_AOI21X1
A_2308_ [_1314_ _1334_ _1303_] _1335_ d_lut_NAND3X1
A_2309_ [_1333_] _1334_ d_lut_INVX1
A_2310_ [\u_mem_serial.shift_rx\_7_ _1297__bF$buf3] _1333_ d_lut_NAND2X1
A_2311_ [_1315__bF$buf4 _1304__bF$buf2 \u_mem_serial.shift_rx\_8_] _1332_ d_lut_OAI21X1
A_2312_ [_1328_ _1331_ rst_bF$buf7] _750_ d_lut_AOI21X1
A_2313_ [_1314_ _1330_ _1303_] _1331_ d_lut_NAND3X1
A_2314_ [_1329_] _1330_ d_lut_INVX1
A_2315_ [\u_mem_serial.shift_rx\_8_ _1297__bF$buf2] _1329_ d_lut_NAND2X1
A_2316_ [_1315__bF$buf3 _1304__bF$buf1 \u_mem_serial.shift_rx\_9_] _1328_ d_lut_OAI21X1
A_2317_ [_1324_ _1327_ rst_bF$buf6] _749_ d_lut_AOI21X1
A_2318_ [_1314_ _1326_ _1303_] _1327_ d_lut_NAND3X1
A_2319_ [_1325_] _1326_ d_lut_INVX1
A_2320_ [\u_mem_serial.shift_rx\_9_ _1297__bF$buf1] _1325_ d_lut_NAND2X1
A_2321_ [_1315__bF$buf2 _1304__bF$buf0 \u_mem_serial.shift_rx\_10_] _1324_ d_lut_OAI21X1
A_2322_ [_1320_ _1323_ rst_bF$buf5] _748_ d_lut_AOI21X1
A_2323_ [_1314_ _1322_ _1303_] _1323_ d_lut_NAND3X1
A_2324_ [_1321_] _1322_ d_lut_INVX1
A_2325_ [\u_mem_serial.shift_rx\_10_ _1297__bF$buf0] _1321_ d_lut_NAND2X1
A_2326_ [_1315__bF$buf1 _1304__bF$buf4 \u_mem_serial.shift_rx\_11_] _1320_ d_lut_OAI21X1
A_2327_ [_1316_ _1319_ rst_bF$buf4] _747_ d_lut_AOI21X1
A_2328_ [_1314_ _1318_ _1303_] _1319_ d_lut_NAND3X1
A_2329_ [_1317_] _1318_ d_lut_INVX1
A_2330_ [\u_mem_serial.shift_rx\_11_ _1297__bF$buf3] _1317_ d_lut_NAND2X1
A_2331_ [_1315__bF$buf0 _1304__bF$buf3 \u_mem_serial.shift_rx\_12_] _1316_ d_lut_OAI21X1
A_2332_ [_1314_] _1315_ d_lut_INVX8
A_2333_ [_1313_ _1311_] _1314_ d_lut_NOR2X1
A_2334_ [\u_mem_serial.req_pending\ \u_mem_serial.state\_0_ _1312_] _1313_ d_lut_OAI21X1
A_2335_ [\u_mem_serial.state\_1_] _1312_ d_lut_INVX1
A_2336_ [_1310_] _1311_ d_lut_INVX1