* XSpice netlist created from SPICE and liberty sources by spi2xspice.py
*SPICE netlist created from verilog structural netlist module my_mcu_top by vlog2Spice (qflow)
** Start of included library /usr/local/share/qflow/tech/etri050/etri050_stdcells.sp
* NGSPICE file created from khu_etri050_stdcells.ext - technology: scmos
** End of included library /usr/local/share/qflow/tech/etri050/etri050_stdcells.sp
.subckt my_mcu_top a_vdd a_gnd a_i_clk_fast a_i_clk_sys_ext a_i_rst_n a_o_rf_sync a_o_rf_sck a_o_rf_mosi a_i_rf_miso a_o_mem_sync a_o_mem_sck a_o_mem_mosi a_i_mem_miso
ACLKBUF1_insert185 [\gen_int_sys_clk.clk_sys_r\] \gen_int_sys_clk.clk_sys_r_hier0_bF$buf0\ d_lut_CLKBUF1
ACLKBUF1_insert184 [\gen_int_sys_clk.clk_sys_r\] \gen_int_sys_clk.clk_sys_r_hier0_bF$buf1\ d_lut_CLKBUF1
ACLKBUF1_insert183 [\gen_int_sys_clk.clk_sys_r\] \gen_int_sys_clk.clk_sys_r_hier0_bF$buf2\ d_lut_CLKBUF1
ACLKBUF1_insert182 [\gen_int_sys_clk.clk_sys_r\] \gen_int_sys_clk.clk_sys_r_hier0_bF$buf3\ d_lut_CLKBUF1
ACLKBUF1_insert181 [\gen_int_sys_clk.clk_sys_r\] \gen_int_sys_clk.clk_sys_r_hier0_bF$buf4\ d_lut_CLKBUF1
ACLKBUF1_insert180 [\gen_int_sys_clk.clk_sys_r\] \gen_int_sys_clk.clk_sys_r_hier0_bF$buf5\ d_lut_CLKBUF1
ABUFX2_insert179 [_22_] _22__bF$buf0 d_lut_BUFX2
ABUFX2_insert178 [_22_] _22__bF$buf1 d_lut_BUFX2
ABUFX2_insert177 [_22_] _22__bF$buf2 d_lut_BUFX2
ABUFX2_insert176 [_22_] _22__bF$buf3 d_lut_BUFX2
ABUFX2_insert175 [_22_] _22__bF$buf4 d_lut_BUFX2
ABUFX2_insert174 [_22_] _22__bF$buf5 d_lut_BUFX2
ABUFX2_insert173 [_22_] _22__bF$buf6 d_lut_BUFX2
ABUFX2_insert172 [_973_] _973__bF$buf0 d_lut_BUFX2
ABUFX2_insert171 [_973_] _973__bF$buf1 d_lut_BUFX2
ABUFX2_insert170 [_973_] _973__bF$buf2 d_lut_BUFX2
ABUFX2_insert169 [_973_] _973__bF$buf3 d_lut_BUFX2
ABUFX2_insert168 [_973_] _973__bF$buf4 d_lut_BUFX2
ABUFX2_insert167 [_973_] _973__bF$buf5 d_lut_BUFX2
ABUFX2_insert166 [_973_] _973__bF$buf6 d_lut_BUFX2
ABUFX2_insert165 [_1783_] _1783__bF$buf0 d_lut_BUFX2
ABUFX2_insert164 [_1783_] _1783__bF$buf1 d_lut_BUFX2
ABUFX2_insert163 [_1783_] _1783__bF$buf2 d_lut_BUFX2
ABUFX2_insert162 [_1783_] _1783__bF$buf3 d_lut_BUFX2
ABUFX2_insert161 [_1783_] _1783__bF$buf4 d_lut_BUFX2
ABUFX2_insert160 [_1783_] _1783__bF$buf5 d_lut_BUFX2
ABUFX2_insert159 [_1783_] _1783__bF$buf6 d_lut_BUFX2
ACLKBUF1_insert158 [\gen_int_sys_clk.clk_sys_r_hier0_bF$buf5\] \gen_int_sys_clk.clk_sys_r_bF$buf0\ d_lut_CLKBUF1
ACLKBUF1_insert157 [\gen_int_sys_clk.clk_sys_r_hier0_bF$buf4\] \gen_int_sys_clk.clk_sys_r_bF$buf1\ d_lut_CLKBUF1
ACLKBUF1_insert156 [\gen_int_sys_clk.clk_sys_r_hier0_bF$buf3\] \gen_int_sys_clk.clk_sys_r_bF$buf2\ d_lut_CLKBUF1
ACLKBUF1_insert155 [\gen_int_sys_clk.clk_sys_r_hier0_bF$buf2\] \gen_int_sys_clk.clk_sys_r_bF$buf3\ d_lut_CLKBUF1
ACLKBUF1_insert154 [\gen_int_sys_clk.clk_sys_r_hier0_bF$buf1\] \gen_int_sys_clk.clk_sys_r_bF$buf4\ d_lut_CLKBUF1
ACLKBUF1_insert153 [\gen_int_sys_clk.clk_sys_r_hier0_bF$buf0\] \gen_int_sys_clk.clk_sys_r_bF$buf5\ d_lut_CLKBUF1
ACLKBUF1_insert152 [\gen_int_sys_clk.clk_sys_r_hier0_bF$buf5\] \gen_int_sys_clk.clk_sys_r_bF$buf6\ d_lut_CLKBUF1
ACLKBUF1_insert151 [\gen_int_sys_clk.clk_sys_r_hier0_bF$buf4\] \gen_int_sys_clk.clk_sys_r_bF$buf7\ d_lut_CLKBUF1
ACLKBUF1_insert150 [\gen_int_sys_clk.clk_sys_r_hier0_bF$buf3\] \gen_int_sys_clk.clk_sys_r_bF$buf8\ d_lut_CLKBUF1
ACLKBUF1_insert149 [\gen_int_sys_clk.clk_sys_r_hier0_bF$buf2\] \gen_int_sys_clk.clk_sys_r_bF$buf9\ d_lut_CLKBUF1
ACLKBUF1_insert148 [\gen_int_sys_clk.clk_sys_r_hier0_bF$buf1\] \gen_int_sys_clk.clk_sys_r_bF$buf10\ d_lut_CLKBUF1
ACLKBUF1_insert147 [\gen_int_sys_clk.clk_sys_r_hier0_bF$buf0\] \gen_int_sys_clk.clk_sys_r_bF$buf11\ d_lut_CLKBUF1
ACLKBUF1_insert146 [\gen_int_sys_clk.clk_sys_r_hier0_bF$buf5\] \gen_int_sys_clk.clk_sys_r_bF$buf12\ d_lut_CLKBUF1
ACLKBUF1_insert145 [\gen_int_sys_clk.clk_sys_r_hier0_bF$buf4\] \gen_int_sys_clk.clk_sys_r_bF$buf13\ d_lut_CLKBUF1
ACLKBUF1_insert144 [\gen_int_sys_clk.clk_sys_r_hier0_bF$buf3\] \gen_int_sys_clk.clk_sys_r_bF$buf14\ d_lut_CLKBUF1
ACLKBUF1_insert143 [\gen_int_sys_clk.clk_sys_r_hier0_bF$buf2\] \gen_int_sys_clk.clk_sys_r_bF$buf15\ d_lut_CLKBUF1
ACLKBUF1_insert142 [\gen_int_sys_clk.clk_sys_r_hier0_bF$buf1\] \gen_int_sys_clk.clk_sys_r_bF$buf16\ d_lut_CLKBUF1
ACLKBUF1_insert141 [\gen_int_sys_clk.clk_sys_r_hier0_bF$buf0\] \gen_int_sys_clk.clk_sys_r_bF$buf17\ d_lut_CLKBUF1
ACLKBUF1_insert140 [\gen_int_sys_clk.clk_sys_r_hier0_bF$buf5\] \gen_int_sys_clk.clk_sys_r_bF$buf18\ d_lut_CLKBUF1
ACLKBUF1_insert139 [\gen_int_sys_clk.clk_sys_r_hier0_bF$buf4\] \gen_int_sys_clk.clk_sys_r_bF$buf19\ d_lut_CLKBUF1
ACLKBUF1_insert138 [\gen_int_sys_clk.clk_sys_r_hier0_bF$buf3\] \gen_int_sys_clk.clk_sys_r_bF$buf20\ d_lut_CLKBUF1
ACLKBUF1_insert137 [\gen_int_sys_clk.clk_sys_r_hier0_bF$buf2\] \gen_int_sys_clk.clk_sys_r_bF$buf21\ d_lut_CLKBUF1
ACLKBUF1_insert136 [\gen_int_sys_clk.clk_sys_r_hier0_bF$buf1\] \gen_int_sys_clk.clk_sys_r_bF$buf22\ d_lut_CLKBUF1
ACLKBUF1_insert135 [\gen_int_sys_clk.clk_sys_r_hier0_bF$buf0\] \gen_int_sys_clk.clk_sys_r_bF$buf23\ d_lut_CLKBUF1
ACLKBUF1_insert134 [\gen_int_sys_clk.clk_sys_r_hier0_bF$buf5\] \gen_int_sys_clk.clk_sys_r_bF$buf24\ d_lut_CLKBUF1
ACLKBUF1_insert133 [\gen_int_sys_clk.clk_sys_r_hier0_bF$buf4\] \gen_int_sys_clk.clk_sys_r_bF$buf25\ d_lut_CLKBUF1
ACLKBUF1_insert132 [\gen_int_sys_clk.clk_sys_r_hier0_bF$buf3\] \gen_int_sys_clk.clk_sys_r_bF$buf26\ d_lut_CLKBUF1
ACLKBUF1_insert131 [\gen_int_sys_clk.clk_sys_r_hier0_bF$buf2\] \gen_int_sys_clk.clk_sys_r_bF$buf27\ d_lut_CLKBUF1
ACLKBUF1_insert130 [\gen_int_sys_clk.clk_sys_r_hier0_bF$buf1\] \gen_int_sys_clk.clk_sys_r_bF$buf28\ d_lut_CLKBUF1
ACLKBUF1_insert129 [\gen_int_sys_clk.clk_sys_r_hier0_bF$buf0\] \gen_int_sys_clk.clk_sys_r_bF$buf29\ d_lut_CLKBUF1
ACLKBUF1_insert128 [\gen_int_sys_clk.clk_sys_r_hier0_bF$buf5\] \gen_int_sys_clk.clk_sys_r_bF$buf30\ d_lut_CLKBUF1
ACLKBUF1_insert127 [\gen_int_sys_clk.clk_sys_r_hier0_bF$buf4\] \gen_int_sys_clk.clk_sys_r_bF$buf31\ d_lut_CLKBUF1
ACLKBUF1_insert126 [\gen_int_sys_clk.clk_sys_r_hier0_bF$buf3\] \gen_int_sys_clk.clk_sys_r_bF$buf32\ d_lut_CLKBUF1
ACLKBUF1_insert125 [\gen_int_sys_clk.clk_sys_r_hier0_bF$buf2\] \gen_int_sys_clk.clk_sys_r_bF$buf33\ d_lut_CLKBUF1
ACLKBUF1_insert124 [\gen_int_sys_clk.clk_sys_r_hier0_bF$buf1\] \gen_int_sys_clk.clk_sys_r_bF$buf34\ d_lut_CLKBUF1
ACLKBUF1_insert123 [\gen_int_sys_clk.clk_sys_r_hier0_bF$buf0\] \gen_int_sys_clk.clk_sys_r_bF$buf35\ d_lut_CLKBUF1
ACLKBUF1_insert122 [\gen_int_sys_clk.clk_sys_r_hier0_bF$buf5\] \gen_int_sys_clk.clk_sys_r_bF$buf36\ d_lut_CLKBUF1
ACLKBUF1_insert121 [\gen_int_sys_clk.clk_sys_r_hier0_bF$buf4\] \gen_int_sys_clk.clk_sys_r_bF$buf37\ d_lut_CLKBUF1
ACLKBUF1_insert120 [\gen_int_sys_clk.clk_sys_r_hier0_bF$buf3\] \gen_int_sys_clk.clk_sys_r_bF$buf38\ d_lut_CLKBUF1
ACLKBUF1_insert119 [\gen_int_sys_clk.clk_sys_r_hier0_bF$buf2\] \gen_int_sys_clk.clk_sys_r_bF$buf39\ d_lut_CLKBUF1
ACLKBUF1_insert118 [\gen_int_sys_clk.clk_sys_r_hier0_bF$buf1\] \gen_int_sys_clk.clk_sys_r_bF$buf40\ d_lut_CLKBUF1
ACLKBUF1_insert117 [\gen_int_sys_clk.clk_sys_r_hier0_bF$buf0\] \gen_int_sys_clk.clk_sys_r_bF$buf41\ d_lut_CLKBUF1
ACLKBUF1_insert116 [\gen_int_sys_clk.clk_sys_r_hier0_bF$buf5\] \gen_int_sys_clk.clk_sys_r_bF$buf42\ d_lut_CLKBUF1
ACLKBUF1_insert115 [\gen_int_sys_clk.clk_sys_r_hier0_bF$buf4\] \gen_int_sys_clk.clk_sys_r_bF$buf43\ d_lut_CLKBUF1
ABUFX2_insert114 [_1002_] _1002__bF$buf0 d_lut_BUFX2
ABUFX2_insert113 [_1002_] _1002__bF$buf1 d_lut_BUFX2
ABUFX2_insert112 [_1002_] _1002__bF$buf2 d_lut_BUFX2
ABUFX2_insert111 [_1002_] _1002__bF$buf3 d_lut_BUFX2
ABUFX2_insert110 [_1002_] _1002__bF$buf4 d_lut_BUFX2
ABUFX2_insert109 [_659_] _659__bF$buf0 d_lut_BUFX2
ABUFX2_insert108 [_659_] _659__bF$buf1 d_lut_BUFX2
ABUFX2_insert107 [_659_] _659__bF$buf2 d_lut_BUFX2
ABUFX2_insert106 [_659_] _659__bF$buf3 d_lut_BUFX2
ABUFX2_insert105 [_659_] _659__bF$buf4 d_lut_BUFX2
ABUFX2_insert104 [_659_] _659__bF$buf5 d_lut_BUFX2
ABUFX2_insert103 [_1692_] _1692__bF$buf0 d_lut_BUFX2
ABUFX2_insert102 [_1692_] _1692__bF$buf1 d_lut_BUFX2
ABUFX2_insert101 [_1692_] _1692__bF$buf2 d_lut_BUFX2
ABUFX2_insert100 [_1692_] _1692__bF$buf3 d_lut_BUFX2
ABUFX2_insert99 [_1692_] _1692__bF$buf4 d_lut_BUFX2
ABUFX2_insert98 [_994_] _994__bF$buf0 d_lut_BUFX2
ABUFX2_insert97 [_994_] _994__bF$buf1 d_lut_BUFX2
ABUFX2_insert96 [_994_] _994__bF$buf2 d_lut_BUFX2
ABUFX2_insert95 [_994_] _994__bF$buf3 d_lut_BUFX2
ABUFX2_insert94 [_994_] _994__bF$buf4 d_lut_BUFX2
ABUFX2_insert93 [_994_] _994__bF$buf5 d_lut_BUFX2
ABUFX2_insert92 [_674_] _674__bF$buf0 d_lut_BUFX2
ABUFX2_insert91 [_674_] _674__bF$buf1 d_lut_BUFX2
ABUFX2_insert90 [_674_] _674__bF$buf2 d_lut_BUFX2
ABUFX2_insert89 [_674_] _674__bF$buf3 d_lut_BUFX2
ABUFX2_insert88 [_1023_] _1023__bF$buf0 d_lut_BUFX2
ABUFX2_insert87 [_1023_] _1023__bF$buf1 d_lut_BUFX2
ABUFX2_insert86 [_1023_] _1023__bF$buf2 d_lut_BUFX2
ABUFX2_insert85 [_1023_] _1023__bF$buf3 d_lut_BUFX2
ABUFX2_insert84 [_1023_] _1023__bF$buf4 d_lut_BUFX2
ABUFX2_insert83 [_1023_] _1023__bF$buf5 d_lut_BUFX2
ABUFX2_insert82 [_1070_] _1070__bF$buf0 d_lut_BUFX2
ABUFX2_insert81 [_1070_] _1070__bF$buf1 d_lut_BUFX2
ABUFX2_insert80 [_1070_] _1070__bF$buf2 d_lut_BUFX2
ABUFX2_insert79 [_1070_] _1070__bF$buf3 d_lut_BUFX2
ABUFX2_insert78 [_1070_] _1070__bF$buf4 d_lut_BUFX2
ABUFX2_insert77 [_1070_] _1070__bF$buf5 d_lut_BUFX2
ABUFX2_insert76 [_1070_] _1070__bF$buf6 d_lut_BUFX2
ABUFX2_insert75 [\u_rf_if.stream_active\] \u_rf_if.stream_active_bF$buf0\ d_lut_BUFX2
ABUFX2_insert74 [\u_rf_if.stream_active\] \u_rf_if.stream_active_bF$buf1\ d_lut_BUFX2
ABUFX2_insert73 [\u_rf_if.stream_active\] \u_rf_if.stream_active_bF$buf2\ d_lut_BUFX2
ABUFX2_insert72 [\u_rf_if.stream_active\] \u_rf_if.stream_active_bF$buf3\ d_lut_BUFX2
ABUFX2_insert71 [\u_rf_if.stream_active\] \u_rf_if.stream_active_bF$buf4\ d_lut_BUFX2
ABUFX2_insert70 [\u_rf_if.stream_active\] \u_rf_if.stream_active_bF$buf5\ d_lut_BUFX2
ABUFX2_insert69 [\u_rf_if.stream_active\] \u_rf_if.stream_active_bF$buf6\ d_lut_BUFX2
ABUFX2_insert68 [\u_rf_if.stream_active\] \u_rf_if.stream_active_bF$buf7\ d_lut_BUFX2
ABUFX2_insert67 [_1006_] _1006__bF$buf0 d_lut_BUFX2
ABUFX2_insert66 [_1006_] _1006__bF$buf1 d_lut_BUFX2
ABUFX2_insert65 [_1006_] _1006__bF$buf2 d_lut_BUFX2
ABUFX2_insert64 [_1006_] _1006__bF$buf3 d_lut_BUFX2
ABUFX2_insert63 [_1006_] _1006__bF$buf4 d_lut_BUFX2
ABUFX2_insert62 [mem_dbus_ack] mem_dbus_ack_bF$buf0 d_lut_BUFX2
ABUFX2_insert61 [mem_dbus_ack] mem_dbus_ack_bF$buf1 d_lut_BUFX2
ABUFX2_insert60 [mem_dbus_ack] mem_dbus_ack_bF$buf2 d_lut_BUFX2
ABUFX2_insert59 [mem_dbus_ack] mem_dbus_ack_bF$buf3 d_lut_BUFX2
ABUFX2_insert58 [mem_dbus_ack] mem_dbus_ack_bF$buf4 d_lut_BUFX2
ABUFX2_insert57 [mem_dbus_ack] mem_dbus_ack_bF$buf5 d_lut_BUFX2
ABUFX2_insert56 [mem_dbus_ack] mem_dbus_ack_bF$buf6 d_lut_BUFX2
ACLKBUF1_insert55 [i_clk_fast] i_clk_fast_bF$buf0 d_lut_CLKBUF1
ACLKBUF1_insert54 [i_clk_fast] i_clk_fast_bF$buf1 d_lut_CLKBUF1
ACLKBUF1_insert53 [i_clk_fast] i_clk_fast_bF$buf2 d_lut_CLKBUF1
ACLKBUF1_insert52 [i_clk_fast] i_clk_fast_bF$buf3 d_lut_CLKBUF1
ACLKBUF1_insert51 [i_clk_fast] i_clk_fast_bF$buf4 d_lut_CLKBUF1
ACLKBUF1_insert50 [i_clk_fast] i_clk_fast_bF$buf5 d_lut_CLKBUF1
ACLKBUF1_insert49 [i_clk_fast] i_clk_fast_bF$buf6 d_lut_CLKBUF1
ACLKBUF1_insert48 [i_clk_fast] i_clk_fast_bF$buf7 d_lut_CLKBUF1
ACLKBUF1_insert47 [i_clk_fast] i_clk_fast_bF$buf8 d_lut_CLKBUF1
ABUFX2_insert46 [ibus_pending_ack] ibus_pending_ack_bF$buf0 d_lut_BUFX2
ABUFX2_insert45 [ibus_pending_ack] ibus_pending_ack_bF$buf1 d_lut_BUFX2
ABUFX2_insert44 [ibus_pending_ack] ibus_pending_ack_bF$buf2 d_lut_BUFX2
ABUFX2_insert43 [ibus_pending_ack] ibus_pending_ack_bF$buf3 d_lut_BUFX2
ABUFX2_insert42 [ibus_pending_ack] ibus_pending_ack_bF$buf4 d_lut_BUFX2
ABUFX2_insert41 [ibus_pending_ack] ibus_pending_ack_bF$buf5 d_lut_BUFX2
ABUFX2_insert40 [_602_] _602__bF$buf0 d_lut_BUFX2
ABUFX2_insert39 [_602_] _602__bF$buf1 d_lut_BUFX2
ABUFX2_insert38 [_602_] _602__bF$buf2 d_lut_BUFX2
ABUFX2_insert37 [_602_] _602__bF$buf3 d_lut_BUFX2
ABUFX2_insert36 [_602_] _602__bF$buf4 d_lut_BUFX2
ABUFX2_insert35 [i_rst_n] i_rst_n_bF$buf0 d_lut_BUFX2
ABUFX2_insert34 [i_rst_n] i_rst_n_bF$buf1 d_lut_BUFX2
ABUFX2_insert33 [i_rst_n] i_rst_n_bF$buf2 d_lut_BUFX2
ABUFX2_insert32 [i_rst_n] i_rst_n_bF$buf3 d_lut_BUFX2
ABUFX2_insert31 [i_rst_n] i_rst_n_bF$buf4 d_lut_BUFX2
ABUFX2_insert30 [i_rst_n] i_rst_n_bF$buf5 d_lut_BUFX2
ABUFX2_insert29 [i_rst_n] i_rst_n_bF$buf6 d_lut_BUFX2
ABUFX2_insert28 [i_rst_n] i_rst_n_bF$buf7 d_lut_BUFX2
ABUFX2_insert27 [i_rst_n] i_rst_n_bF$buf8 d_lut_BUFX2
ABUFX2_insert26 [i_rst_n] i_rst_n_bF$buf9 d_lut_BUFX2
ABUFX2_insert25 [i_rst_n] i_rst_n_bF$buf10 d_lut_BUFX2
ABUFX2_insert24 [i_rst_n] i_rst_n_bF$buf11 d_lut_BUFX2
ABUFX2_insert23 [_570_] _570__bF$buf0 d_lut_BUFX2
ABUFX2_insert22 [_570_] _570__bF$buf1 d_lut_BUFX2
ABUFX2_insert21 [_570_] _570__bF$buf2 d_lut_BUFX2
ABUFX2_insert20 [_570_] _570__bF$buf3 d_lut_BUFX2
ABUFX2_insert19 [_570_] _570__bF$buf4 d_lut_BUFX2
ABUFX2_insert18 [_212_] _212__bF$buf0 d_lut_BUFX2
ABUFX2_insert17 [_212_] _212__bF$buf1 d_lut_BUFX2
ABUFX2_insert16 [_212_] _212__bF$buf2 d_lut_BUFX2
ABUFX2_insert15 [_212_] _212__bF$buf3 d_lut_BUFX2
ABUFX2_insert14 [_212_] _212__bF$buf4 d_lut_BUFX2
ABUFX2_insert13 [_673_] _673__bF$buf0 d_lut_BUFX2
ABUFX2_insert12 [_673_] _673__bF$buf1 d_lut_BUFX2
ABUFX2_insert11 [_673_] _673__bF$buf2 d_lut_BUFX2
ABUFX2_insert10 [_673_] _673__bF$buf3 d_lut_BUFX2
ABUFX2_insert9 [_1536_] _1536__bF$buf0 d_lut_BUFX2
ABUFX2_insert8 [_1536_] _1536__bF$buf1 d_lut_BUFX2
ABUFX2_insert7 [_1536_] _1536__bF$buf2 d_lut_BUFX2
ABUFX2_insert6 [_1536_] _1536__bF$buf3 d_lut_BUFX2
ABUFX2_insert5 [_1536_] _1536__bF$buf4 d_lut_BUFX2
ABUFX2_insert4 [_450_] _450__bF$buf0 d_lut_BUFX2
ABUFX2_insert3 [_450_] _450__bF$buf1 d_lut_BUFX2
ABUFX2_insert2 [_450_] _450__bF$buf2 d_lut_BUFX2
ABUFX2_insert1 [_450_] _450__bF$buf3 d_lut_BUFX2
ABUFX2_insert0 [_450_] _450__bF$buf4 d_lut_BUFX2
A_1860_ [_1858_] o_rf_sync d_lut_BUFX2
A_1861_ [_1857_] o_rf_sck d_lut_BUFX2
A_1862_ [_1856_] o_rf_mosi d_lut_BUFX2
A_1863_ [_1855_] o_mem_sync d_lut_BUFX2
A_1864_ [_1854_] o_mem_sck d_lut_BUFX2
A_1865_ [_0_] o_mem_mosi d_lut_BUFX2
A_1866_ [\u_mem_serial.bit_count\_1_ _1041_ _1040_] _1039_ d_lut_AOI21X1
A_1867_ [_1070__bF$buf6 _1039_] _1460_ d_lut_NOR2X1
A_1868_ [\u_mem_serial.bit_count\_1_] _1038_ d_lut_INVX1
A_1869_ [_1038_ _1042_] _1037_ d_lut_NAND2X1
A_1870_ [\u_mem_serial.bit_count\_2_ _1037_ _1052_] _1036_ d_lut_OAI21X1
A_1871_ [\u_mem_serial.bit_count\_2_ _1037_ _1036_] _1035_ d_lut_AOI21X1
A_1872_ [_1070__bF$buf5 _1035_] _1459_ d_lut_NOR2X1
A_1873_ [\u_mem_serial.bit_count\_3_] _1034_ d_lut_INVX1
A_1874_ [\u_mem_serial.bit_count\_2_ _1037_] _1033_ d_lut_NOR2X1
A_1875_ [_1034_ _1033_] _1032_ d_lut_NAND2X1
A_1876_ [\u_mem_serial.bit_count\_2_ _1037_ \u_mem_serial.bit_count\_3_] _1031_ d_lut_OAI21X1
A_1877_ [_1032_ _1031_ _1049_] _1458_ d_lut_AOI21X1
A_1878_ [\u_mem_serial.bit_count\_4_ _1032_] _1030_ d_lut_NOR2X1
A_1879_ [_1030_] _1029_ d_lut_INVX1
A_1880_ [\u_mem_serial.bit_count\_4_ _1032_] _1028_ d_lut_NAND2X1
A_1881_ [_1029_ _1028_ _1049_] _1457_ d_lut_AOI21X1
A_1882_ [\u_mem_serial.bit_count\_5_ _1030_ _1050_] _1027_ d_lut_OAI21X1
A_1883_ [\u_mem_serial.bit_count\_5_ _1030_ _1027_] _1456_ d_lut_AOI21X1
A_1884_ [\u_mem_serial.bit_count\_6_] _1026_ d_lut_INVX1
A_1885_ [\u_mem_serial.bit_count\_5_] _1025_ d_lut_INVX1
A_1886_ [\u_mem_serial.state\_0_] _1024_ d_lut_INVX2
A_1887_ [\u_mem_serial.state\_1_ _1024_] _1023_ d_lut_NOR2X1
A_1888_ [_1026_ _1025_ _1023__bF$buf5] _1022_ d_lut_NAND3X1
A_1889_ [\u_mem_serial.bit_count\_4_] _1021_ d_lut_INVX1
A_1890_ [\u_mem_serial.bit_count\_3_ \u_mem_serial.bit_count\_2_] _1020_ d_lut_NOR2X1
A_1891_ [_1021_ _1020_] _1019_ d_lut_NAND2X1
A_1892_ [_1019_] _1018_ d_lut_INVX1
A_1893_ [\u_mem_serial.bit_count\_0_ _1038_] _1017_ d_lut_NOR2X1
A_1894_ [_1018_ _1017_ _1022_] _1016_ d_lut_AOI21X1
A_1895_ [_1038_ _1018_] _1015_ d_lut_NAND2X1
A_1896_ [_1038_ \u_mem_serial.bit_count\_0_ _1020_] _1014_ d_lut_NAND3X1
A_1897_ [\u_mem_serial.bit_count\_5_ _1026_ _1021_] _1013_ d_lut_NAND3X1
A_1898_ [_1013_ _1014_] _1012_ d_lut_NOR2X1
A_1899_ [_1012_ _1015_] _1011_ d_lut_NOR2X1
A_1900_ [_1016_ _1011_] _1010_ d_lut_NAND2X1
A_1901_ [_1010_ _1043_] _1009_ d_lut_NAND2X1
A_1902_ [\u_cpu.ctrl.pc\_0_] _1008_ d_lut_INVX1
A_1903_ [_1070__bF$buf4 _1069_] _1007_ d_lut_NOR2X1
A_1904_ [_1061_ _1064_ _1007_] _1006_ d_lut_OAI21X1
A_1905_ [_1006__bF$buf4] _1005_ d_lut_INVX1
A_1906_ [\u_mem_serial.state\_1_ _1024_ _1005_] _1004_ d_lut_OAI21X1
A_1907_ [\u_mem_serial.bit_count\_1_ _1019_ \u_mem_serial.bit_count\_5_] _1003_ d_lut_OAI21X1
A_1908_ [_1023__bF$buf4] _1002_ d_lut_INVX8
A_1909_ [\u_mem_serial.active_we\] _1001_ d_lut_INVX1
A_1910_ [i_mem_miso _1001_] _1000_ d_lut_NAND2X1
A_1911_ [_1000_ _1002__bF$buf4] _999_ d_lut_NOR2X1
A_1912_ [_1026_ _1003_ _999_] _998_ d_lut_NAND3X1
A_1913_ [_1008_ _1004_ _998_] _997_ d_lut_OAI21X1
A_1914_ [\u_mem_serial.shift_reg\_0_ _997_ _1009_] _996_ d_lut_MUX2X1
A_1915_ [_1070__bF$buf3 _996_] _1455_ d_lut_NOR2X1
A_1916_ [\u_cpu.ctrl.o_ibus_adr\_1_] _995_ d_lut_INVX1
A_1917_ [\u_mem_serial.active_we\ _1012_] _994_ d_lut_NAND2X1
A_1918_ [\u_mem_serial.shift_reg\_0_ _1023__bF$buf3 _994__bF$buf5] _993_ d_lut_NAND3X1
A_1919_ [_995_ _1004_ _993_] _992_ d_lut_OAI21X1
A_1920_ [\u_mem_serial.shift_reg\_1_ _992_ _1009_] _991_ d_lut_MUX2X1
A_1921_ [_1070__bF$buf2 _991_] _1454_ d_lut_NOR2X1
A_1922_ [\u_cpu.bufreg.data\_2_ \u_cpu.ctrl.o_ibus_adr\_2_ _1006__bF$buf3] _990_ d_lut_MUX2X1
A_1923_ [\u_mem_serial.shift_reg\_1_ _1023__bF$buf2 _994__bF$buf4] _989_ d_lut_NAND3X1
A_1924_ [_1023__bF$buf1 _990_ _989_] _988_ d_lut_OAI21X1
A_1925_ [\u_mem_serial.shift_reg\_2_ _988_ _1009_] _987_ d_lut_MUX2X1
A_1926_ [_1070__bF$buf1 _987_] _1453_ d_lut_NOR2X1
A_1927_ [\u_cpu.bufreg.data\_3_ \u_cpu.ctrl.o_ibus_adr\_3_ _1006__bF$buf2] _986_ d_lut_MUX2X1
A_1928_ [\u_mem_serial.shift_reg\_2_ _1023__bF$buf0 _994__bF$buf3] _985_ d_lut_NAND3X1
A_1929_ [_1023__bF$buf5 _986_ _985_] _984_ d_lut_OAI21X1
A_1930_ [\u_mem_serial.shift_reg\_3_ _984_ _1009_] _983_ d_lut_MUX2X1
A_1931_ [_1070__bF$buf0 _983_] _1452_ d_lut_NOR2X1
A_1932_ [\u_cpu.bufreg.data\_4_ \u_cpu.ctrl.o_ibus_adr\_4_ _1006__bF$buf1] _982_ d_lut_MUX2X1
A_1933_ [\u_mem_serial.shift_reg\_3_ _1023__bF$buf4 _994__bF$buf2] _981_ d_lut_NAND3X1
A_1934_ [_1023__bF$buf3 _982_ _981_] _980_ d_lut_OAI21X1
A_1935_ [\u_mem_serial.shift_reg\_4_ _980_ _1009_] _979_ d_lut_MUX2X1
A_1936_ [_1070__bF$buf6 _979_] _1451_ d_lut_NOR2X1
A_1937_ [\u_cpu.bufreg.data\_5_ \u_cpu.ctrl.o_ibus_adr\_5_ _1006__bF$buf0] _978_ d_lut_MUX2X1
A_1938_ [\u_mem_serial.shift_reg\_4_ _1023__bF$buf2 _994__bF$buf1] _977_ d_lut_NAND3X1
A_1939_ [_1023__bF$buf1 _978_ _977_] _976_ d_lut_OAI21X1
A_1940_ [\u_mem_serial.shift_reg\_5_ _976_ _1009_] _975_ d_lut_MUX2X1
A_1941_ [_1070__bF$buf5 _975_] _1450_ d_lut_NOR2X1
A_1942_ [\u_mem_serial.shift_reg\_6_] _974_ d_lut_INVX1
A_1943_ [_1009_] _973_ d_lut_INVX8
A_1944_ [\u_mem_serial.shift_reg\_5_ \u_cpu.bufreg2.dlo\_0_ _994__bF$buf0] _972_ d_lut_MUX2X1
A_1945_ [_1002__bF$buf3 _972_] _971_ d_lut_NOR2X1
A_1946_ [\u_cpu.bufreg.data\_6_ \u_cpu.ctrl.o_ibus_adr\_6_ _1006__bF$buf4] _970_ d_lut_MUX2X1
A_1947_ [_1023__bF$buf0 _970_] _969_ d_lut_NOR2X1
A_1948_ [_971_ _969_ _973__bF$buf6] _968_ d_lut_OAI21X1
A_1949_ [_974_ _973__bF$buf5 _968_] _967_ d_lut_OAI21X1
A_1950_ [_967_ i_rst_n_bF$buf11] _1449_ d_lut_AND2X2
A_1951_ [\u_mem_serial.shift_reg\_7_] _966_ d_lut_INVX1
A_1952_ [\u_mem_serial.shift_reg\_6_ \u_cpu.bufreg2.dlo\_1_ _994__bF$buf5] _965_ d_lut_MUX2X1
A_1953_ [_1002__bF$buf2 _965_] _964_ d_lut_NOR2X1
A_1954_ [\u_cpu.bufreg.data\_7_ \u_cpu.ctrl.o_ibus_adr\_7_ _1006__bF$buf3] _963_ d_lut_MUX2X1
A_1955_ [_1023__bF$buf5 _963_] _962_ d_lut_NOR2X1
A_1956_ [_964_ _962_ _973__bF$buf4] _961_ d_lut_OAI21X1
A_1957_ [_966_ _973__bF$buf3 _961_] _960_ d_lut_OAI21X1
A_1958_ [_960_ i_rst_n_bF$buf10] _1448_ d_lut_AND2X2
A_1959_ [\u_mem_serial.shift_reg\_8_] _959_ d_lut_INVX1
A_1960_ [\u_mem_serial.shift_reg\_7_ \u_cpu.bufreg2.dlo\_2_ _994__bF$buf4] _958_ d_lut_MUX2X1
A_1961_ [_1002__bF$buf1 _958_] _957_ d_lut_NOR2X1
A_1962_ [\u_cpu.bufreg.data\_8_ \u_cpu.ctrl.o_ibus_adr\_8_ _1006__bF$buf2] _956_ d_lut_MUX2X1
A_1963_ [_1023__bF$buf4 _956_] _955_ d_lut_NOR2X1
A_1964_ [_957_ _955_ _973__bF$buf2] _954_ d_lut_OAI21X1
A_1965_ [_959_ _973__bF$buf1 _954_] _953_ d_lut_OAI21X1
A_1966_ [_953_ i_rst_n_bF$buf9] _1447_ d_lut_AND2X2
A_1967_ [\u_mem_serial.shift_reg\_9_] _952_ d_lut_INVX1
A_1968_ [\u_mem_serial.shift_reg\_8_ \u_cpu.bufreg2.dlo\_3_ _994__bF$buf3] _951_ d_lut_MUX2X1
A_1969_ [_1002__bF$buf0 _951_] _950_ d_lut_NOR2X1
A_1970_ [\u_cpu.bufreg.data\_9_ \u_cpu.ctrl.o_ibus_adr\_9_ _1006__bF$buf1] _949_ d_lut_MUX2X1
A_1971_ [_1023__bF$buf3 _949_] _948_ d_lut_NOR2X1
A_1972_ [_950_ _948_ _973__bF$buf0] _947_ d_lut_OAI21X1
A_1973_ [_952_ _973__bF$buf6 _947_] _946_ d_lut_OAI21X1
A_1974_ [_946_ i_rst_n_bF$buf8] _1446_ d_lut_AND2X2
A_1975_ [\u_mem_serial.shift_reg\_10_] _945_ d_lut_INVX1
A_1976_ [\u_mem_serial.shift_reg\_9_ \u_cpu.bufreg2.dlo\_4_ _994__bF$buf2] _944_ d_lut_MUX2X1
A_1977_ [_1002__bF$buf4 _944_] _943_ d_lut_NOR2X1
A_1978_ [\u_cpu.bufreg.data\_10_ \u_cpu.ctrl.o_ibus_adr\_10_ _1006__bF$buf0] _942_ d_lut_MUX2X1
A_1979_ [_1023__bF$buf2 _942_] _941_ d_lut_NOR2X1
A_1980_ [_943_ _941_ _973__bF$buf5] _940_ d_lut_OAI21X1
A_1981_ [_945_ _973__bF$buf4 _940_] _939_ d_lut_OAI21X1
A_1982_ [_939_ i_rst_n_bF$buf7] _1445_ d_lut_AND2X2
A_1983_ [\u_mem_serial.shift_reg\_11_] _938_ d_lut_INVX1
A_1984_ [\u_mem_serial.shift_reg\_10_ \u_cpu.bufreg2.dlo\_5_ _994__bF$buf1] _937_ d_lut_MUX2X1
A_1985_ [_1002__bF$buf3 _937_] _936_ d_lut_NOR2X1
A_1986_ [\u_cpu.bufreg.data\_11_ \u_cpu.ctrl.o_ibus_adr\_11_ _1006__bF$buf4] _935_ d_lut_MUX2X1
A_1987_ [_1023__bF$buf1 _935_] _934_ d_lut_NOR2X1
A_1988_ [_936_ _934_ _973__bF$buf3] _933_ d_lut_OAI21X1
A_1989_ [_938_ _973__bF$buf2 _933_] _932_ d_lut_OAI21X1
A_1990_ [_932_ i_rst_n_bF$buf6] _1444_ d_lut_AND2X2
A_1991_ [\u_mem_serial.shift_reg\_12_] _931_ d_lut_INVX1
A_1992_ [\u_mem_serial.shift_reg\_11_ \u_cpu.bufreg2.dlo\_6_ _994__bF$buf0] _930_ d_lut_MUX2X1
A_1993_ [_1002__bF$buf2 _930_] _929_ d_lut_NOR2X1
A_1994_ [\u_cpu.bufreg.data\_12_ \u_cpu.ctrl.o_ibus_adr\_12_ _1006__bF$buf3] _928_ d_lut_MUX2X1
A_1995_ [_1023__bF$buf0 _928_] _927_ d_lut_NOR2X1
A_1996_ [_929_ _927_ _973__bF$buf1] _926_ d_lut_OAI21X1
A_1997_ [_931_ _973__bF$buf0 _926_] _925_ d_lut_OAI21X1
A_1998_ [_925_ i_rst_n_bF$buf5] _1443_ d_lut_AND2X2
A_1999_ [\u_mem_serial.shift_reg\_13_] _924_ d_lut_INVX1
A_2000_ [\u_mem_serial.shift_reg\_12_ \u_cpu.bufreg2.dlo\_7_ _994__bF$buf5] _923_ d_lut_MUX2X1
A_2001_ [_1002__bF$buf1 _923_] _922_ d_lut_NOR2X1
A_2002_ [\u_cpu.bufreg.data\_13_ \u_cpu.ctrl.o_ibus_adr\_13_ _1006__bF$buf2] _921_ d_lut_MUX2X1
A_2003_ [_1023__bF$buf5 _921_] _920_ d_lut_NOR2X1
A_2004_ [_922_ _920_ _973__bF$buf6] _919_ d_lut_OAI21X1
A_2005_ [_924_ _973__bF$buf5 _919_] _918_ d_lut_OAI21X1
A_2006_ [_918_ i_rst_n_bF$buf4] _1442_ d_lut_AND2X2
A_2007_ [\u_mem_serial.shift_reg\_14_] _917_ d_lut_INVX1
A_2008_ [\u_mem_serial.shift_reg\_13_ \u_cpu.bufreg2.dlo\_8_ _994__bF$buf4] _916_ d_lut_MUX2X1
A_2009_ [_1002__bF$buf0 _916_] _915_ d_lut_NOR2X1
A_2010_ [\u_cpu.bufreg.data\_14_ \u_cpu.ctrl.o_ibus_adr\_14_ _1006__bF$buf1] _914_ d_lut_MUX2X1
A_2011_ [_1023__bF$buf4 _914_] _913_ d_lut_NOR2X1
A_2012_ [_915_ _913_ _973__bF$buf4] _912_ d_lut_OAI21X1
A_2013_ [_917_ _973__bF$buf3 _912_] _911_ d_lut_OAI21X1
A_2014_ [_911_ i_rst_n_bF$buf3] _1441_ d_lut_AND2X2
A_2015_ [\u_mem_serial.shift_reg\_15_] _910_ d_lut_INVX1
A_2016_ [\u_mem_serial.shift_reg\_14_ \u_cpu.bufreg2.dlo\_9_ _994__bF$buf3] _909_ d_lut_MUX2X1
A_2017_ [_1002__bF$buf4 _909_] _908_ d_lut_NOR2X1
A_2018_ [\u_cpu.bufreg.data\_15_ \u_cpu.ctrl.o_ibus_adr\_15_ _1006__bF$buf0] _907_ d_lut_MUX2X1
A_2019_ [_1023__bF$buf3 _907_] _906_ d_lut_NOR2X1
A_2020_ [_908_ _906_ _973__bF$buf2] _905_ d_lut_OAI21X1
A_2021_ [_910_ _973__bF$buf1 _905_] _904_ d_lut_OAI21X1
A_2022_ [_904_ i_rst_n_bF$buf2] _1440_ d_lut_AND2X2
A_2023_ [\u_mem_serial.shift_reg\_16_] _903_ d_lut_INVX1
A_2024_ [\u_mem_serial.shift_reg\_15_ \u_cpu.bufreg2.dlo\_10_ _994__bF$buf2] _902_ d_lut_MUX2X1
A_2025_ [_1002__bF$buf3 _902_] _901_ d_lut_NOR2X1
A_2026_ [\u_cpu.bufreg.data\_16_ \u_cpu.ctrl.o_ibus_adr\_16_ _1006__bF$buf4] _900_ d_lut_MUX2X1
A_2027_ [_1023__bF$buf2 _900_] _899_ d_lut_NOR2X1
A_2028_ [_901_ _899_ _973__bF$buf0] _898_ d_lut_OAI21X1
A_2029_ [_903_ _973__bF$buf6 _898_] _897_ d_lut_OAI21X1
A_2030_ [_897_ i_rst_n_bF$buf1] _1439_ d_lut_AND2X2
A_2031_ [\u_mem_serial.shift_reg\_17_] _896_ d_lut_INVX1
A_2032_ [\u_mem_serial.shift_reg\_16_ \u_cpu.bufreg2.dlo\_11_ _994__bF$buf1] _895_ d_lut_MUX2X1
A_2033_ [_1002__bF$buf2 _895_] _894_ d_lut_NOR2X1
A_2034_ [\u_cpu.bufreg.data\_17_ \u_cpu.ctrl.o_ibus_adr\_17_ _1006__bF$buf3] _893_ d_lut_MUX2X1
A_2035_ [_1023__bF$buf1 _893_] _892_ d_lut_NOR2X1
A_2036_ [_894_ _892_ _973__bF$buf5] _891_ d_lut_OAI21X1
A_2037_ [_896_ _973__bF$buf4 _891_] _890_ d_lut_OAI21X1
A_2038_ [_890_ i_rst_n_bF$buf0] _1438_ d_lut_AND2X2
A_2039_ [\u_mem_serial.shift_reg\_18_] _889_ d_lut_INVX1
A_2040_ [\u_mem_serial.shift_reg\_17_ \u_cpu.bufreg2.dlo\_12_ _994__bF$buf0] _888_ d_lut_MUX2X1
A_2041_ [_1002__bF$buf1 _888_] _887_ d_lut_NOR2X1
A_2042_ [\u_cpu.bufreg.data\_18_ \u_cpu.ctrl.o_ibus_adr\_18_ _1006__bF$buf2] _886_ d_lut_MUX2X1
A_2043_ [_1023__bF$buf0 _886_] _885_ d_lut_NOR2X1
A_2044_ [_887_ _885_ _973__bF$buf3] _884_ d_lut_OAI21X1
A_2045_ [_889_ _973__bF$buf2 _884_] _883_ d_lut_OAI21X1
A_2046_ [_883_ i_rst_n_bF$buf11] _1437_ d_lut_AND2X2
A_2047_ [\u_mem_serial.shift_reg\_19_] _882_ d_lut_INVX1
A_2048_ [\u_mem_serial.shift_reg\_18_ \u_cpu.bufreg2.dlo\_13_ _994__bF$buf5] _881_ d_lut_MUX2X1
A_2049_ [_1002__bF$buf0 _881_] _880_ d_lut_NOR2X1
A_2050_ [\u_cpu.bufreg.data\_19_ \u_cpu.ctrl.o_ibus_adr\_19_ _1006__bF$buf1] _879_ d_lut_MUX2X1
A_2051_ [_1023__bF$buf5 _879_] _878_ d_lut_NOR2X1
A_2052_ [_880_ _878_ _973__bF$buf1] _877_ d_lut_OAI21X1
A_2053_ [_882_ _973__bF$buf0 _877_] _876_ d_lut_OAI21X1
A_2054_ [_876_ i_rst_n_bF$buf10] _1436_ d_lut_AND2X2
A_2055_ [\u_mem_serial.shift_reg\_20_] _875_ d_lut_INVX1
A_2056_ [\u_mem_serial.shift_reg\_19_ \u_cpu.bufreg2.dlo\_14_ _994__bF$buf4] _874_ d_lut_MUX2X1
A_2057_ [_1002__bF$buf4 _874_] _873_ d_lut_NOR2X1
A_2058_ [\u_cpu.bufreg.data\_20_ \u_cpu.ctrl.o_ibus_adr\_20_ _1006__bF$buf0] _872_ d_lut_MUX2X1
A_2059_ [_1023__bF$buf4 _872_] _871_ d_lut_NOR2X1
A_2060_ [_873_ _871_ _973__bF$buf6] _870_ d_lut_OAI21X1
A_2061_ [_875_ _973__bF$buf5 _870_] _869_ d_lut_OAI21X1
A_2062_ [_869_ i_rst_n_bF$buf9] _1435_ d_lut_AND2X2
A_2063_ [\u_mem_serial.shift_reg\_21_] _868_ d_lut_INVX1
A_2064_ [\u_mem_serial.shift_reg\_20_ \u_cpu.bufreg2.dlo\_15_ _994__bF$buf3] _867_ d_lut_MUX2X1
A_2065_ [_1002__bF$buf3 _867_] _866_ d_lut_NOR2X1
A_2066_ [\u_cpu.bufreg.data\_21_ \u_cpu.ctrl.o_ibus_adr\_21_ _1006__bF$buf4] _865_ d_lut_MUX2X1
A_2067_ [_1023__bF$buf3 _865_] _864_ d_lut_NOR2X1
A_2068_ [_866_ _864_ _973__bF$buf4] _863_ d_lut_OAI21X1
A_2069_ [_868_ _973__bF$buf3 _863_] _862_ d_lut_OAI21X1
A_2070_ [_862_ i_rst_n_bF$buf8] _1434_ d_lut_AND2X2
A_2071_ [\u_mem_serial.shift_reg\_22_] _861_ d_lut_INVX1
A_2072_ [\u_mem_serial.shift_reg\_21_ \u_cpu.bufreg2.dlo\_16_ _994__bF$buf2] _860_ d_lut_MUX2X1
A_2073_ [_1002__bF$buf2 _860_] _859_ d_lut_NOR2X1
A_2074_ [\u_cpu.bufreg.data\_22_ \u_cpu.ctrl.o_ibus_adr\_22_ _1006__bF$buf3] _858_ d_lut_MUX2X1
A_2075_ [_1023__bF$buf2 _858_] _857_ d_lut_NOR2X1
A_2076_ [_859_ _857_ _973__bF$buf2] _856_ d_lut_OAI21X1
A_2077_ [_861_ _973__bF$buf1 _856_] _855_ d_lut_OAI21X1
A_2078_ [_855_ i_rst_n_bF$buf7] _1433_ d_lut_AND2X2
A_2079_ [\u_mem_serial.shift_reg\_23_] _854_ d_lut_INVX1
A_2080_ [\u_mem_serial.shift_reg\_22_ \u_cpu.bufreg2.dlo\_17_ _994__bF$buf1] _853_ d_lut_MUX2X1
A_2081_ [_1002__bF$buf1 _853_] _852_ d_lut_NOR2X1
A_2082_ [\u_cpu.bufreg.data\_23_ \u_cpu.ctrl.o_ibus_adr\_23_ _1006__bF$buf2] _851_ d_lut_MUX2X1
A_2083_ [_1023__bF$buf1 _851_] _850_ d_lut_NOR2X1
A_2084_ [_852_ _850_ _973__bF$buf0] _849_ d_lut_OAI21X1
A_2085_ [_854_ _973__bF$buf6 _849_] _848_ d_lut_OAI21X1
A_2086_ [_848_ i_rst_n_bF$buf6] _1432_ d_lut_AND2X2
A_2087_ [\u_mem_serial.shift_reg\_24_] _847_ d_lut_INVX1
A_2088_ [\u_mem_serial.shift_reg\_23_ \u_cpu.bufreg2.dlo\_18_ _994__bF$buf0] _846_ d_lut_MUX2X1
A_2089_ [_1002__bF$buf0 _846_] _845_ d_lut_NOR2X1
A_2090_ [\u_cpu.bufreg.data\_24_ \u_cpu.ctrl.o_ibus_adr\_24_ _1006__bF$buf1] _844_ d_lut_MUX2X1
A_2091_ [_1023__bF$buf0 _844_] _843_ d_lut_NOR2X1
A_2092_ [_845_ _843_ _973__bF$buf5] _842_ d_lut_OAI21X1
A_2093_ [_847_ _973__bF$buf4 _842_] _841_ d_lut_OAI21X1
A_2094_ [_841_ i_rst_n_bF$buf5] _1431_ d_lut_AND2X2
A_2095_ [\u_mem_serial.shift_reg\_25_] _840_ d_lut_INVX1
A_2096_ [\u_mem_serial.shift_reg\_24_ \u_cpu.bufreg2.dlo\_19_ _994__bF$buf5] _839_ d_lut_MUX2X1
A_2097_ [_1002__bF$buf4 _839_] _838_ d_lut_NOR2X1
A_2098_ [\u_cpu.bufreg.data\_25_ \u_cpu.ctrl.o_ibus_adr\_25_ _1006__bF$buf0] _837_ d_lut_MUX2X1
A_2099_ [_1023__bF$buf5 _837_] _836_ d_lut_NOR2X1
A_2100_ [_838_ _836_ _973__bF$buf3] _835_ d_lut_OAI21X1
A_2101_ [_840_ _973__bF$buf2 _835_] _834_ d_lut_OAI21X1
A_2102_ [_834_ i_rst_n_bF$buf4] _1430_ d_lut_AND2X2
A_2103_ [\u_mem_serial.shift_reg\_26_] _833_ d_lut_INVX1
A_2104_ [\u_mem_serial.shift_reg\_25_ \u_cpu.bufreg2.dlo\_20_ _994__bF$buf4] _832_ d_lut_MUX2X1
A_2105_ [_1002__bF$buf3 _832_] _831_ d_lut_NOR2X1
A_2106_ [\u_cpu.bufreg.data\_26_ \u_cpu.ctrl.o_ibus_adr\_26_ _1006__bF$buf4] _830_ d_lut_MUX2X1
A_2107_ [_1023__bF$buf4 _830_] _829_ d_lut_NOR2X1
A_2108_ [_831_ _829_ _973__bF$buf1] _828_ d_lut_OAI21X1
A_2109_ [_833_ _973__bF$buf0 _828_] _827_ d_lut_OAI21X1
A_2110_ [_827_ i_rst_n_bF$buf3] _1429_ d_lut_AND2X2
A_2111_ [\u_mem_serial.shift_reg\_27_] _826_ d_lut_INVX1
A_2112_ [\u_mem_serial.shift_reg\_26_ \u_cpu.bufreg2.dlo\_21_ _994__bF$buf3] _825_ d_lut_MUX2X1
A_2113_ [_1002__bF$buf2 _825_] _824_ d_lut_NOR2X1
A_2114_ [\u_cpu.bufreg.data\_27_ \u_cpu.ctrl.o_ibus_adr\_27_ _1006__bF$buf3] _823_ d_lut_MUX2X1
A_2115_ [_1023__bF$buf3 _823_] _822_ d_lut_NOR2X1
A_2116_ [_824_ _822_ _973__bF$buf6] _821_ d_lut_OAI21X1
A_2117_ [_826_ _973__bF$buf5 _821_] _820_ d_lut_OAI21X1